BRI-00647-04
     RDKit          3D

 40 40  0  0  0  0  0  0  0  0999 V2000
   -0.5191   -1.3718    6.6599 C   0  0  0  0  0  0  0  0  0  0  0  0
   -1.9870   -1.3917    6.2268 C   0  0  0  0  0  0  0  0  0  0  0  0
   -2.9102   -1.1533    7.4224 C   0  0  0  0  0  0  0  0  0  0  0  0
   -2.3653   -2.6827    5.4964 C   0  0  0  0  0  0  0  0  0  0  0  0
   -2.2747   -0.2227    5.3661 O   0  0  0  0  0  0  0  0  0  0  0  0
   -1.6561   -0.0755    4.1787 C   0  0  0  0  0  0  0  0  0  0  0  0
   -0.8095   -0.8132    3.6924 O   0  0  0  0  0  0  0  0  0  0  0  0
   -2.0960    1.0816    3.5640 N   0  0  0  0  0  0  0  0  0  0  0  0
   -1.8005    1.2647    2.1494 C   0  0  1  0  0  0  0  0  0  0  0  0
   -0.3112    1.6087    1.9074 C   0  0  0  0  0  0  0  0  0  0  0  0
   -0.0537    2.3408    0.6115 C   0  0  0  0  0  0  0  0  0  0  0  0
   -0.4759    3.6715    0.4483 C   0  0  0  0  0  0  0  0  0  0  0  0
   -0.2898    4.3902   -0.6605 N   0  0  0  0  0  0  0  0  0  0  0  0
    0.3500    3.7984   -1.6748 C   0  0  0  0  0  0  0  0  0  0  0  0
    0.8291    2.4898   -1.6314 C   0  0  0  0  0  0  0  0  0  0  0  0
    0.6166    1.7535   -0.4640 C   0  0  0  0  0  0  0  0  0  0  0  0
    0.5308    4.6659   -2.9064 C   0  0  0  0  0  0  0  0  0  0  0  0
    1.2480    5.7791   -2.6340 F   0  0  0  0  0  0  0  0  0  0  0  0
   -0.6570    5.0658   -3.4146 F   0  0  0  0  0  0  0  0  0  0  0  0
    1.1849    3.9989   -3.8931 F   0  0  0  0  0  0  0  0  0  0  0  0
   -2.3383    0.0698    1.3447 C   0  0  0  0  0  0  0  0  0  0  0  0
   -1.5943   -0.2266    0.2536 O   0  0  0  0  0  0  0  0  0  0  0  0
   -3.3589   -0.5214    1.6275 O   0  0  0  0  0  0  0  0  0  0  0  0
   -0.2710   -0.4097    7.1194 H   0  0  0  0  0  0  0  0  0  0  0  0
    0.1469   -1.5438    5.8138 H   0  0  0  0  0  0  0  0  0  0  0  0
   -0.3511   -2.1572    7.4039 H   0  0  0  0  0  0  0  0  0  0  0  0
   -2.6705   -0.2049    7.9122 H   0  0  0  0  0  0  0  0  0  0  0  0
   -3.9558   -1.1242    7.1022 H   0  0  0  0  0  0  0  0  0  0  0  0
   -2.7926   -1.9603    8.1514 H   0  0  0  0  0  0  0  0  0  0  0  0
   -1.7056   -2.8690    4.6487 H   0  0  0  0  0  0  0  0  0  0  0  0
   -3.3972   -2.6273    5.1361 H   0  0  0  0  0  0  0  0  0  0  0  0
   -2.2904   -3.5250    6.1919 H   0  0  0  0  0  0  0  0  0  0  0  0
   -2.9982    1.4085    3.8870 H   0  0  0  0  0  0  0  0  0  0  0  0
   -2.4041    2.1184    1.8224 H   0  0  0  0  0  0  0  0  0  0  0  0
    0.2840    0.6975    1.9675 H   0  0  0  0  0  0  0  0  0  0  0  0
   -0.0105    2.2460    2.7447 H   0  0  0  0  0  0  0  0  0  0  0  0
   -0.9850    4.1859    1.2642 H   0  0  0  0  0  0  0  0  0  0  0  0
    1.3479    2.0614   -2.4817 H   0  0  0  0  0  0  0  0  0  0  0  0
    0.9620    0.7265   -0.3916 H   0  0  0  0  0  0  0  0  0  0  0  0
   -2.0456   -0.9715   -0.1898 H   0  0  0  0  0  0  0  0  0  0  0  0
  1  2  1  0
  1 24  1  0
  1 25  1  0
  1 26  1  0
  2  3  1  0
  2  4  1  0
  2  5  1  0
  3 27  1  0
  3 28  1  0
  3 29  1  0
  4 30  1  0
  4 31  1  0
  4 32  1  0
  5  6  1  0
  6  7  2  0
  6  8  1  0
  8  9  1  0
  8 33  1  0
  9 10  1  0
  9 21  1  0
  9 34  1  6
 10 11  1  0
 10 35  1  0
 10 36  1  0
 11 12  2  0
 11 16  1  0
 12 13  1  0
 12 37  1  0
 13 14  2  0
 14 15  1  0
 14 17  1  0
 15 16  2  0
 15 38  1  0
 16 39  1  0
 17 18  1  0
 17 19  1  0
 17 20  1  0
 21 22  1  0
 21 23  2  0
 22 40  1  0
M  END
>  <group_name>  (1) 
BRI

>  <molecule_index>  (1) 
00647

>  <conformer_index>  (1) 
04

>  <method>  (1) 
b3lyp-d3bj

>  <basis>  (1) 
dzvp

>  <program>  (1) 
psi4

>  <initial_energy>  (1) 
-786798.4092587571 kilocalorie / mole

>  <final_energy>  (1) 
-786881.3777489929 kilocalorie / mole

$$$$
