BRI-00638-04
     RDKit          3D

 45 45  0  0  0  0  0  0  0  0999 V2000
   -2.5857    4.3377   -2.8902 C   0  0  0  0  0  0  0  0  0  0  0  0
   -2.4055    3.1305   -1.9733 C   0  0  0  0  0  0  0  0  0  0  0  0
   -2.2023    3.4725   -0.5972 O   0  0  0  0  0  0  0  0  0  0  0  0
   -0.9480    4.0853   -0.3259 C   0  0  0  0  0  0  0  0  0  0  0  0
   -0.8090    4.2206    1.1822 C   0  0  0  0  0  0  0  0  0  0  0  0
   -0.9527    2.8948    1.8156 N   0  0  0  0  0  0  0  0  0  0  0  0
    0.0097    2.4768    3.1635 S   0  0  0  0  0  0  0  0  0  0  0  0
   -0.8790    1.7061    4.0377 O   0  0  0  0  0  0  0  0  0  0  0  0
    0.7129    3.6756    3.6334 O   0  0  0  0  0  0  0  0  0  0  0  0
    1.2995    1.3287    2.4628 C   0  0  0  0  0  0  0  0  0  0  0  0
    2.1419    2.1095    1.4428 C   0  0  0  0  0  0  0  0  0  0  0  0
    2.1393    0.9045    3.6738 C   0  0  0  0  0  0  0  0  0  0  0  0
    0.6730    0.0678    1.7947 C   0  0  0  0  0  0  0  0  0  0  0  0
    1.0069   -1.0482    2.1408 O   0  0  0  0  0  0  0  0  0  0  0  0
   -0.1965    0.3523    0.7547 N   0  0  0  0  0  0  0  0  0  0  0  0
   -0.8677   -0.5709   -0.0597 C   0  0  0  0  0  0  0  0  0  0  0  0
   -2.1477   -0.2210   -0.5396 C   0  0  0  0  0  0  0  0  0  0  0  0
   -2.8010   -1.1089   -1.3826 C   0  0  0  0  0  0  0  0  0  0  0  0
   -2.1779   -2.3176   -1.7224 C   0  0  0  0  0  0  0  0  0  0  0  0
   -0.9119   -2.5502   -1.1919 C   0  0  0  0  0  0  0  0  0  0  0  0
   -0.2568   -1.7061   -0.3899 N   0  0  0  0  0  0  0  0  0  0  0  0
   -0.1463   -3.8221   -1.5181 C   0  0  0  0  0  0  0  0  0  0  0  0
    0.1062   -4.5510   -0.4122 F   0  0  0  0  0  0  0  0  0  0  0  0
    1.0389   -3.5489   -2.1079 F   0  0  0  0  0  0  0  0  0  0  0  0
   -0.8458   -4.6146   -2.3728 F   0  0  0  0  0  0  0  0  0  0  0  0
   -2.8593    3.9979   -3.8949 H   0  0  0  0  0  0  0  0  0  0  0  0
   -3.3838    4.9868   -2.5168 H   0  0  0  0  0  0  0  0  0  0  0  0
   -1.6697    4.9291   -2.9812 H   0  0  0  0  0  0  0  0  0  0  0  0
   -1.5744    2.4982   -2.3203 H   0  0  0  0  0  0  0  0  0  0  0  0
   -3.3116    2.5184   -1.9786 H   0  0  0  0  0  0  0  0  0  0  0  0
   -0.1318    3.4666   -0.7313 H   0  0  0  0  0  0  0  0  0  0  0  0
   -0.8792    5.0819   -0.7836 H   0  0  0  0  0  0  0  0  0  0  0  0
   -1.5638    4.9100    1.5729 H   0  0  0  0  0  0  0  0  0  0  0  0
    0.1703    4.6314    1.4343 H   0  0  0  0  0  0  0  0  0  0  0  0
   -1.9168    2.6704    2.0567 H   0  0  0  0  0  0  0  0  0  0  0  0
    1.5519    2.4591    0.5926 H   0  0  0  0  0  0  0  0  0  0  0  0
    2.9183    1.4443    1.0534 H   0  0  0  0  0  0  0  0  0  0  0  0
    2.6224    2.9651    1.9227 H   0  0  0  0  0  0  0  0  0  0  0  0
    2.5834    1.7807    4.1512 H   0  0  0  0  0  0  0  0  0  0  0  0
    2.9338    0.2402    3.3288 H   0  0  0  0  0  0  0  0  0  0  0  0
    1.5365    0.3570    4.3994 H   0  0  0  0  0  0  0  0  0  0  0  0
   -0.5805    1.2986    0.7623 H   0  0  0  0  0  0  0  0  0  0  0  0
   -2.6020    0.7201   -0.2434 H   0  0  0  0  0  0  0  0  0  0  0  0
   -3.7901   -0.8734   -1.7658 H   0  0  0  0  0  0  0  0  0  0  0  0
   -2.6542   -3.0422   -2.3718 H   0  0  0  0  0  0  0  0  0  0  0  0
  1  2  1  0
  1 26  1  0
  1 27  1  0
  1 28  1  0
  2  3  1  0
  2 29  1  0
  2 30  1  0
  3  4  1  0
  4  5  1  0
  4 31  1  0
  4 32  1  0
  5  6  1  0
  5 33  1  0
  5 34  1  0
  6  7  1  0
  6 35  1  0
  7  8  2  0
  7  9  2  0
  7 10  1  0
 10 11  1  0
 10 12  1  0
 10 13  1  0
 11 36  1  0
 11 37  1  0
 11 38  1  0
 12 39  1  0
 12 40  1  0
 12 41  1  0
 13 14  2  0
 13 15  1  0
 15 16  1  0
 15 42  1  0
 16 17  2  0
 16 21  1  0
 17 18  1  0
 17 43  1  0
 18 19  2  0
 18 44  1  0
 19 20  1  0
 19 45  1  0
 20 21  2  0
 20 22  1  0
 22 23  1  0
 22 24  1  0
 22 25  1  0
M  END
>  <group_name>  (1) 
BRI

>  <molecule_index>  (1) 
00638

>  <conformer_index>  (1) 
04

>  <method>  (1) 
b3lyp-d3bj

>  <basis>  (1) 
dzvp

>  <program>  (1) 
psi4

>  <initial_energy>  (1) 
-1072082.3166917262 kilocalorie / mole

>  <final_energy>  (1) 
-1072172.7888416103 kilocalorie / mole

$$$$
