BRI-00739-09
     RDKit          3D

 34 35  0  0  0  0  0  0  0  0999 V2000
    8.1314    0.7629    2.8569 C   0  0  0  0  0  0  0  0  0  0  0  0
    7.0265    0.1483    2.1295 N   0  0  0  0  0  0  0  0  0  0  0  0
    7.2300   -0.9236    1.3407 C   0  0  0  0  0  0  0  0  0  0  0  0
    8.3253   -1.4560    1.1637 O   0  0  0  0  0  0  0  0  0  0  0  0
    5.9709   -1.5310    0.6496 C   0  0  2  0  0  0  0  0  0  0  0  0
    6.3635   -2.1829   -0.6425 C   0  0  0  0  0  0  0  0  0  0  0  0
    5.6045   -2.2977   -1.6711 N   0  0  0  0  0  0  0  0  0  0  0  0
    4.3141   -1.7368   -1.6411 C   0  0  0  0  0  0  0  0  0  0  0  0
    3.5020   -2.1305   -2.8398 C   0  0  0  0  0  0  0  0  0  0  0  0
    3.8687   -0.9094   -0.6413 C   0  0  0  0  0  0  0  0  0  0  0  0
    4.7033   -0.6899    0.5464 C   0  0  0  0  0  0  0  0  0  0  0  0
    4.3656    0.0809    1.4511 O   0  0  0  0  0  0  0  0  0  0  0  0
    2.5716   -0.1905   -0.7040 C   0  0  0  0  0  0  0  0  0  0  0  0
    1.6246   -0.3117    0.3249 C   0  0  0  0  0  0  0  0  0  0  0  0
    0.4223    0.3787    0.2044 C   0  0  0  0  0  0  0  0  0  0  0  0
    0.1027    1.1725   -0.8247 N   0  0  0  0  0  0  0  0  0  0  0  0
    1.0136    1.3007   -1.7925 C   0  0  0  0  0  0  0  0  0  0  0  0
    2.2506    0.6478   -1.7771 C   0  0  0  0  0  0  0  0  0  0  0  0
   -0.6503    0.2709    1.2745 C   0  0  0  0  0  0  0  0  0  0  0  0
   -0.2618   -0.5423    2.2901 F   0  0  0  0  0  0  0  0  0  0  0  0
   -0.9400    1.4751    1.8127 F   0  0  0  0  0  0  0  0  0  0  0  0
   -1.7996   -0.2367    0.7739 F   0  0  0  0  0  0  0  0  0  0  0  0
    8.5565    0.0665    3.5866 H   0  0  0  0  0  0  0  0  0  0  0  0
    7.7555    1.6460    3.3762 H   0  0  0  0  0  0  0  0  0  0  0  0
    8.9256    1.0597    2.1668 H   0  0  0  0  0  0  0  0  0  0  0  0
    6.0691    0.4691    2.2537 H   0  0  0  0  0  0  0  0  0  0  0  0
    5.6878   -2.3599    1.3217 H   0  0  0  0  0  0  0  0  0  0  0  0
    7.3736   -2.5865   -0.6934 H   0  0  0  0  0  0  0  0  0  0  0  0
    3.9141   -1.6577   -3.7389 H   0  0  0  0  0  0  0  0  0  0  0  0
    3.6039   -3.2105   -2.9872 H   0  0  0  0  0  0  0  0  0  0  0  0
    2.4486   -1.8685   -2.7497 H   0  0  0  0  0  0  0  0  0  0  0  0
    1.8209   -0.9281    1.1934 H   0  0  0  0  0  0  0  0  0  0  0  0
    0.7477    1.9562   -2.6198 H   0  0  0  0  0  0  0  0  0  0  0  0
    2.9549    0.8023   -2.5892 H   0  0  0  0  0  0  0  0  0  0  0  0
  1  2  1  0
  1 23  1  0
  1 24  1  0
  1 25  1  0
  2  3  1  0
  2 26  1  0
  3  4  2  0
  3  5  1  0
  5  6  1  0
  5 11  1  0
  5 27  1  1
  6  7  2  0
  6 28  1  0
  7  8  1  0
  8  9  1  0
  8 10  2  0
  9 29  1  0
  9 30  1  0
  9 31  1  0
 10 11  1  0
 10 13  1  0
 11 12  2  0
 13 14  2  0
 13 18  1  0
 14 15  1  0
 14 32  1  0
 15 16  2  0
 15 19  1  0
 16 17  1  0
 17 18  2  0
 17 33  1  0
 18 34  1  0
 19 20  1  0
 19 21  1  0
 19 22  1  0
M  END
>  <group_name>  (1) 
BRI

>  <molecule_index>  (1) 
00739

>  <conformer_index>  (1) 
09

>  <method>  (1) 
b3lyp-d3bj

>  <basis>  (1) 
dzvp

>  <program>  (1) 
psi4

>  <initial_energy>  (1) 
-724842.7728772789 kilocalorie / mole

>  <final_energy>  (1) 
-724888.0370722546 kilocalorie / mole

$$$$
