BRI-01231-02
     RDKit          3D

 32 33  0  0  0  0  0  0  0  0999 V2000
   -4.3566    0.1501    0.2647 C   0  0  0  0  0  0  0  0  0  0  0  0
   -3.1518    0.0818   -0.5018 O   0  0  0  0  0  0  0  0  0  0  0  0
   -2.5191   -1.1191   -0.5848 C   0  0  0  0  0  0  0  0  0  0  0  0
   -1.2955   -1.1258   -1.2929 C   0  0  0  0  0  0  0  0  0  0  0  0
   -0.8394    0.0278   -1.9087 O   0  0  0  0  0  0  0  0  0  0  0  0
   -0.5214    1.1196   -1.1375 C   0  0  0  0  0  0  0  0  0  0  0  0
   -0.2701    1.0531    0.2421 C   0  0  0  0  0  0  0  0  0  0  0  0
    0.0655    2.1249    0.9588 N   0  0  0  0  0  0  0  0  0  0  0  0
    0.1705    3.2997    0.3305 C   0  0  0  0  0  0  0  0  0  0  0  0
   -0.0480    3.4653   -1.0385 C   0  0  0  0  0  0  0  0  0  0  0  0
   -0.4036    2.3463   -1.7896 C   0  0  0  0  0  0  0  0  0  0  0  0
    0.5528    4.4665    1.2175 C   0  0  0  0  0  0  0  0  0  0  0  0
    0.6463    5.6209    0.5061 F   0  0  0  0  0  0  0  0  0  0  0  0
    1.7477    4.2715    1.8201 F   0  0  0  0  0  0  0  0  0  0  0  0
   -0.3595    4.6742    2.1952 F   0  0  0  0  0  0  0  0  0  0  0  0
   -0.5696   -2.2992   -1.4565 C   0  0  0  0  0  0  0  0  0  0  0  0
   -1.0371   -3.4963   -0.9084 C   0  0  0  0  0  0  0  0  0  0  0  0
   -2.2377   -3.4967   -0.1911 C   0  0  0  0  0  0  0  0  0  0  0  0
   -2.9768   -2.3125   -0.0284 C   0  0  0  0  0  0  0  0  0  0  0  0
   -2.7884   -4.7322    0.4243 C   0  0  0  0  0  0  0  0  0  0  0  0
   -2.0103   -5.8288    0.2129 O   0  0  0  0  0  0  0  0  0  0  0  0
   -3.8274   -4.7910    1.0594 O   0  0  0  0  0  0  0  0  0  0  0  0
   -4.6720    1.1925    0.2230 H   0  0  0  0  0  0  0  0  0  0  0  0
   -4.1769   -0.1381    1.3063 H   0  0  0  0  0  0  0  0  0  0  0  0
   -5.1352   -0.4882   -0.1680 H   0  0  0  0  0  0  0  0  0  0  0  0
   -0.3435    0.1086    0.7755 H   0  0  0  0  0  0  0  0  0  0  0  0
    0.0523    4.4397   -1.5033 H   0  0  0  0  0  0  0  0  0  0  0  0
   -0.5940    2.4088   -2.8566 H   0  0  0  0  0  0  0  0  0  0  0  0
    0.3608   -2.2573   -2.0145 H   0  0  0  0  0  0  0  0  0  0  0  0
   -0.4744   -4.4144   -1.0302 H   0  0  0  0  0  0  0  0  0  0  0  0
   -3.9049   -2.3623    0.5280 H   0  0  0  0  0  0  0  0  0  0  0  0
   -2.4648   -6.5686    0.6589 H   0  0  0  0  0  0  0  0  0  0  0  0
  1  2  1  0
  1 23  1  0
  1 24  1  0
  1 25  1  0
  2  3  1  0
  3  4  2  0
  3 19  1  0
  4  5  1  0
  4 16  1  0
  5  6  1  0
  6  7  2  0
  6 11  1  0
  7  8  1  0
  7 26  1  0
  8  9  2  0
  9 10  1  0
  9 12  1  0
 10 11  2  0
 10 27  1  0
 11 28  1  0
 12 13  1  0
 12 14  1  0
 12 15  1  0
 16 17  2  0
 16 29  1  0
 17 18  1  0
 17 30  1  0
 18 19  2  0
 18 20  1  0
 19 31  1  0
 20 21  1  0
 20 22  2  0
 21 32  1  0
M  END
>  <group_name>  (1) 
BRI

>  <molecule_index>  (1) 
01231

>  <conformer_index>  (1) 
02

>  <method>  (1) 
b3lyp-d3bj

>  <basis>  (1) 
dzvp

>  <program>  (1) 
psi4

>  <initial_energy>  (1) 
-749795.084669872 kilocalorie / mole

>  <final_energy>  (1) 
-749830.5421729124 kilocalorie / mole

$$$$
