BRI-00649-00
     RDKit          3D

 53 55  0  0  0  0  0  0  0  0999 V2000
    7.8956   -1.7819    2.1471 C   0  0  0  0  0  0  0  0  0  0  0  0
    6.4329   -2.2334    2.1974 C   0  0  0  0  0  0  0  0  0  0  0  0
    5.8400   -2.3650    0.8568 N   0  0  0  0  0  0  0  0  0  0  0  0
    5.2800   -1.1136    0.2997 C   0  0  1  0  0  0  0  0  0  0  0  0
    5.8113   -0.3242    0.8463 H   0  0  0  0  0  0  0  0  0  0  0  0
    5.5359   -0.8342   -1.1858 C   0  0  0  0  0  0  0  0  0  0  0  0
    3.7869   -0.9920    0.6831 C   0  0  0  0  0  0  0  0  0  0  0  0
    3.2614    0.3556    0.5018 N   0  0  0  0  0  0  0  0  0  0  0  0
    2.6194    0.7703   -0.6461 C   0  0  0  0  0  0  0  0  0  0  0  0
    2.4273    2.1527   -0.8985 C   0  0  0  0  0  0  0  0  0  0  0  0
    1.7554    2.5379   -2.0459 C   0  0  0  0  0  0  0  0  0  0  0  0
    1.2873    1.5445   -2.9078 C   0  0  0  0  0  0  0  0  0  0  0  0
    0.6361    1.8936   -4.0412 F   0  0  0  0  0  0  0  0  0  0  0  0
    1.5039    0.2109   -2.5861 C   0  0  0  0  0  0  0  0  0  0  0  0
    2.1587   -0.1666   -1.4851 N   0  0  0  0  0  0  0  0  0  0  0  0
    0.9942   -0.8906   -3.5028 C   0  0  0  0  0  0  0  0  0  0  0  0
   -0.3372   -0.7655   -3.7274 F   0  0  0  0  0  0  0  0  0  0  0  0
    1.6084   -0.8474   -4.7117 F   0  0  0  0  0  0  0  0  0  0  0  0
    1.2027   -2.1143   -2.9868 F   0  0  0  0  0  0  0  0  0  0  0  0
    6.0886   -3.5496    0.2140 C   0  0  0  0  0  0  0  0  0  0  0  0
    6.7570   -4.4461    0.7380 O   0  0  0  0  0  0  0  0  0  0  0  0
    5.4674   -3.8009   -1.1341 C   0  0  0  0  0  0  0  0  0  0  0  0
    6.2922   -4.0242   -2.2539 C   0  0  0  0  0  0  0  0  0  0  0  0
    5.6639   -4.3302   -3.4647 C   0  0  0  0  0  0  0  0  0  0  0  0
    6.4105   -4.4746   -4.5835 F   0  0  0  0  0  0  0  0  0  0  0  0
    4.2835   -4.4517   -3.5892 C   0  0  0  0  0  0  0  0  0  0  0  0
    3.4909   -4.2784   -2.4550 C   0  0  0  0  0  0  0  0  0  0  0  0
    4.0827   -3.9515   -1.2329 C   0  0  0  0  0  0  0  0  0  0  0  0
    7.7739   -3.9363   -2.1525 C   0  0  0  0  0  0  0  0  0  0  0  0
    8.2779   -2.8766   -1.4962 N   0  0  0  0  0  0  0  0  0  0  0  0
    9.6069   -2.8293   -1.3617 C   0  0  0  0  0  0  0  0  0  0  0  0
   10.4429   -3.8169   -1.8813 C   0  0  0  0  0  0  0  0  0  0  0  0
    9.8146   -4.8620   -2.5619 C   0  0  0  0  0  0  0  0  0  0  0  0
    8.4875   -4.9316   -2.7025 N   0  0  0  0  0  0  0  0  0  0  0  0
    8.2941   -1.6666    3.1611 H   0  0  0  0  0  0  0  0  0  0  0  0
    8.4935   -2.5273    1.6187 H   0  0  0  0  0  0  0  0  0  0  0  0
    7.9997   -0.8219    1.6292 H   0  0  0  0  0  0  0  0  0  0  0  0
    5.8251   -1.5198    2.7638 H   0  0  0  0  0  0  0  0  0  0  0  0
    6.3605   -3.2009    2.6953 H   0  0  0  0  0  0  0  0  0  0  0  0
    5.3602    0.2298   -1.3724 H   0  0  0  0  0  0  0  0  0  0  0  0
    6.5704   -1.0679   -1.4433 H   0  0  0  0  0  0  0  0  0  0  0  0
    4.8698   -1.3945   -1.8409 H   0  0  0  0  0  0  0  0  0  0  0  0
    3.1857   -1.6633    0.0730 H   0  0  0  0  0  0  0  0  0  0  0  0
    3.6573   -1.2806    1.7317 H   0  0  0  0  0  0  0  0  0  0  0  0
    3.7194    1.0878    1.0290 H   0  0  0  0  0  0  0  0  0  0  0  0
    2.8040    2.8982   -0.2030 H   0  0  0  0  0  0  0  0  0  0  0  0
    1.5890    3.5835   -2.2872 H   0  0  0  0  0  0  0  0  0  0  0  0
    3.8552   -4.6760   -4.5611 H   0  0  0  0  0  0  0  0  0  0  0  0
    2.4134   -4.3826   -2.5277 H   0  0  0  0  0  0  0  0  0  0  0  0
    3.4657   -3.8282   -0.3489 H   0  0  0  0  0  0  0  0  0  0  0  0
   10.0103   -1.9727   -0.8231 H   0  0  0  0  0  0  0  0  0  0  0  0
   11.5213   -3.7745   -1.7657 H   0  0  0  0  0  0  0  0  0  0  0  0
   10.3908   -5.6730   -3.0054 H   0  0  0  0  0  0  0  0  0  0  0  0
  1  2  1  0
  1 35  1  0
  1 36  1  0
  1 37  1  0
  2  3  1  0
  2 38  1  0
  2 39  1  0
  3  4  1  0
  3 20  1  0
  4  5  1  1
  4  6  1  0
  4  7  1  0
  6 40  1  0
  6 41  1  0
  6 42  1  0
  7  8  1  0
  7 43  1  0
  7 44  1  0
  8  9  1  0
  8 45  1  0
  9 10  2  0
  9 15  1  0
 10 11  1  0
 10 46  1  0
 11 12  2  0
 11 47  1  0
 12 13  1  0
 12 14  1  0
 14 15  2  0
 14 16  1  0
 16 17  1  0
 16 18  1  0
 16 19  1  0
 20 21  2  0
 20 22  1  0
 22 23  1  0
 22 28  2  0
 23 24  2  0
 23 29  1  0
 24 25  1  0
 24 26  1  0
 26 27  2  0
 26 48  1  0
 27 28  1  0
 27 49  1  0
 28 50  1  0
 29 30  2  0
 29 34  1  0
 30 31  1  0
 31 32  2  0
 31 51  1  0
 32 33  1  0
 32 52  1  0
 33 34  2  0
 33 53  1  0
M  END
>  <group_name>  (1) 
BRI

>  <molecule_index>  (1) 
00649

>  <conformer_index>  (1) 
00

>  <method>  (1) 
b3lyp-d3bj

>  <basis>  (1) 
dzvp

>  <program>  (1) 
psi4

>  <initial_energy>  (1) 
-1066048.0269665166 kilocalorie / mole

>  <final_energy>  (1) 
-1066098.483011482 kilocalorie / mole

$$$$
