BRI-01231-06
     RDKit          3D

 32 33  0  0  0  0  0  0  0  0999 V2000
   -4.3129    0.1994   -0.9554 C   0  0  0  0  0  0  0  0  0  0  0  0
   -3.1996    0.1121   -0.0634 O   0  0  0  0  0  0  0  0  0  0  0  0
   -2.5872   -1.0939    0.0731 C   0  0  0  0  0  0  0  0  0  0  0  0
   -1.4777   -1.1289    0.9490 C   0  0  0  0  0  0  0  0  0  0  0  0
   -1.1154    0.0039    1.6568 O   0  0  0  0  0  0  0  0  0  0  0  0
   -0.6681    1.1048    0.9671 C   0  0  0  0  0  0  0  0  0  0  0  0
   -0.6654    2.3213    1.6692 C   0  0  0  0  0  0  0  0  0  0  0  0
   -0.2286    3.4578    1.1351 N   0  0  0  0  0  0  0  0  0  0  0  0
    0.2236    3.4274   -0.1250 C   0  0  0  0  0  0  0  0  0  0  0  0
    0.2662    2.2704   -0.9010 C   0  0  0  0  0  0  0  0  0  0  0  0
   -0.1897    1.0746   -0.3415 C   0  0  0  0  0  0  0  0  0  0  0  0
    0.6929    4.7611   -0.6680 C   0  0  0  0  0  0  0  0  0  0  0  0
    1.6937    5.2846    0.0750 F   0  0  0  0  0  0  0  0  0  0  0  0
    1.1577    4.6426   -1.9401 F   0  0  0  0  0  0  0  0  0  0  0  0
   -0.3067    5.6733   -0.6934 F   0  0  0  0  0  0  0  0  0  0  0  0
   -0.7832   -2.3107    1.1773 C   0  0  0  0  0  0  0  0  0  0  0  0
   -1.1708   -3.4890    0.5339 C   0  0  0  0  0  0  0  0  0  0  0  0
   -2.2588   -3.4617   -0.3444 C   0  0  0  0  0  0  0  0  0  0  0  0
   -2.9649   -2.2687   -0.5757 C   0  0  0  0  0  0  0  0  0  0  0  0
   -2.7233   -4.6764   -1.0636 C   0  0  0  0  0  0  0  0  0  0  0  0
   -1.9889   -5.7846   -0.7728 O   0  0  0  0  0  0  0  0  0  0  0  0
   -3.6623   -4.7095   -1.8405 O   0  0  0  0  0  0  0  0  0  0  0  0
   -4.6364    1.2395   -0.9197 H   0  0  0  0  0  0  0  0  0  0  0  0
   -4.0196   -0.0599   -1.9790 H   0  0  0  0  0  0  0  0  0  0  0  0
   -5.1310   -0.4525   -0.6289 H   0  0  0  0  0  0  0  0  0  0  0  0
   -1.0350    2.3495    2.6922 H   0  0  0  0  0  0  0  0  0  0  0  0
    0.6468    2.2969   -1.9159 H   0  0  0  0  0  0  0  0  0  0  0  0
   -0.1721    0.1505   -0.9101 H   0  0  0  0  0  0  0  0  0  0  0  0
    0.0568   -2.2910    1.8651 H   0  0  0  0  0  0  0  0  0  0  0  0
   -0.6341   -4.4141    0.7086 H   0  0  0  0  0  0  0  0  0  0  0  0
   -3.8069   -2.2980   -1.2566 H   0  0  0  0  0  0  0  0  0  0  0  0
   -2.3809   -6.5099   -1.2955 H   0  0  0  0  0  0  0  0  0  0  0  0
  1  2  1  0
  1 23  1  0
  1 24  1  0
  1 25  1  0
  2  3  1  0
  3  4  2  0
  3 19  1  0
  4  5  1  0
  4 16  1  0
  5  6  1  0
  6  7  2  0
  6 11  1  0
  7  8  1  0
  7 26  1  0
  8  9  2  0
  9 10  1  0
  9 12  1  0
 10 11  2  0
 10 27  1  0
 11 28  1  0
 12 13  1  0
 12 14  1  0
 12 15  1  0
 16 17  2  0
 16 29  1  0
 17 18  1  0
 17 30  1  0
 18 19  2  0
 18 20  1  0
 19 31  1  0
 20 21  1  0
 20 22  2  0
 21 32  1  0
M  END
>  <group_name>  (1) 
BRI

>  <molecule_index>  (1) 
01231

>  <conformer_index>  (1) 
06

>  <method>  (1) 
b3lyp-d3bj

>  <basis>  (1) 
dzvp

>  <program>  (1) 
psi4

>  <initial_energy>  (1) 
-749812.0272112921 kilocalorie / mole

>  <final_energy>  (1) 
-749830.5506471238 kilocalorie / mole

$$$$
