BRI-01545-07
     RDKit          3D

 40 41  0  0  0  0  0  0  0  0999 V2000
    0.3818    8.3201   -2.3616 C   0  0  0  0  0  0  0  0  0  0  0  0
   -0.0838    6.8999   -2.0381 C   0  0  0  0  0  0  0  0  0  0  0  0
   -0.5362    6.1631   -3.2979 C   0  0  0  0  0  0  0  0  0  0  0  0
   -1.1715    6.8631   -0.9631 C   0  0  0  0  0  0  0  0  0  0  0  0
    1.0754    6.0824   -1.5924 O   0  0  0  0  0  0  0  0  0  0  0  0
    1.7438    6.3532   -0.4691 C   0  0  0  0  0  0  0  0  0  0  0  0
    1.5959    7.3153    0.2618 O   0  0  0  0  0  0  0  0  0  0  0  0
    2.8037    5.2843   -0.1964 C   0  0  2  0  0  0  0  0  0  0  0  0
    3.0728    5.3746    0.8615 H   0  0  0  0  0  0  0  0  0  0  0  0
    4.0480    5.4746   -1.0978 C   0  0  0  0  0  0  0  0  0  0  0  0
    4.5612    4.0488   -1.3184 C   0  0  0  0  0  0  0  0  0  0  0  0
    3.3290    3.1686   -1.1605 C   0  0  0  0  0  0  0  0  0  0  0  0
    3.2178    2.0023   -1.4992 O   0  0  0  0  0  0  0  0  0  0  0  0
    2.3535    3.9273   -0.5159 N   0  0  0  0  0  0  0  0  0  0  0  0
    1.1046    3.4450   -0.0819 C   0  0  0  0  0  0  0  0  0  0  0  0
    0.4679    4.0132    1.0280 C   0  0  0  0  0  0  0  0  0  0  0  0
   -0.7942    3.5506    1.4000 C   0  0  0  0  0  0  0  0  0  0  0  0
   -1.3703    2.5338    0.6432 C   0  0  0  0  0  0  0  0  0  0  0  0
   -0.7760    1.9771   -0.4182 N   0  0  0  0  0  0  0  0  0  0  0  0
    0.4301    2.4143   -0.7738 C   0  0  0  0  0  0  0  0  0  0  0  0
   -2.7507    1.9960    0.9613 C   0  0  0  0  0  0  0  0  0  0  0  0
   -2.7418    0.6601    1.1537 F   0  0  0  0  0  0  0  0  0  0  0  0
   -3.6277    2.2533   -0.0387 F   0  0  0  0  0  0  0  0  0  0  0  0
   -3.2557    2.5632    2.0888 F   0  0  0  0  0  0  0  0  0  0  0  0
    0.7027    8.8501   -1.4641 H   0  0  0  0  0  0  0  0  0  0  0  0
    1.2093    8.2967   -3.0777 H   0  0  0  0  0  0  0  0  0  0  0  0
   -0.4448    8.8738   -2.8184 H   0  0  0  0  0  0  0  0  0  0  0  0
   -0.8141    5.1321   -3.0618 H   0  0  0  0  0  0  0  0  0  0  0  0
   -1.4045    6.6668   -3.7323 H   0  0  0  0  0  0  0  0  0  0  0  0
    0.2638    6.1453   -4.0439 H   0  0  0  0  0  0  0  0  0  0  0  0
   -2.0735    7.3466   -1.3510 H   0  0  0  0  0  0  0  0  0  0  0  0
   -1.4229    5.8291   -0.7097 H   0  0  0  0  0  0  0  0  0  0  0  0
   -0.8609    7.3871   -0.0583 H   0  0  0  0  0  0  0  0  0  0  0  0
    3.7376    5.9121   -2.0499 H   0  0  0  0  0  0  0  0  0  0  0  0
    4.7728    6.1428   -0.6308 H   0  0  0  0  0  0  0  0  0  0  0  0
    5.2850    3.7454   -0.5534 H   0  0  0  0  0  0  0  0  0  0  0  0
    5.0203    3.8809   -2.2939 H   0  0  0  0  0  0  0  0  0  0  0  0
    0.9340    4.8094    1.5985 H   0  0  0  0  0  0  0  0  0  0  0  0
   -1.3114    3.9741    2.2534 H   0  0  0  0  0  0  0  0  0  0  0  0
    0.8905    1.9416   -1.6330 H   0  0  0  0  0  0  0  0  0  0  0  0
  1  2  1  0
  1 25  1  0
  1 26  1  0
  1 27  1  0
  2  3  1  0
  2  4  1  0
  2  5  1  0
  3 28  1  0
  3 29  1  0
  3 30  1  0
  4 31  1  0
  4 32  1  0
  4 33  1  0
  5  6  1  0
  6  7  2  0
  6  8  1  0
  8  9  1  1
  8 10  1  0
  8 14  1  0
 10 11  1  0
 10 34  1  0
 10 35  1  0
 11 12  1  0
 11 36  1  0
 11 37  1  0
 12 13  2  0
 12 14  1  0
 14 15  1  0
 15 16  2  0
 15 20  1  0
 16 17  1  0
 16 38  1  0
 17 18  2  0
 17 39  1  0
 18 19  1  0
 18 21  1  0
 19 20  2  0
 20 40  1  0
 21 22  1  0
 21 23  1  0
 21 24  1  0
M  END
>  <group_name>  (1) 
BRI

>  <molecule_index>  (1) 
01545

>  <conformer_index>  (1) 
07

>  <method>  (1) 
b3lyp-d3bj

>  <basis>  (1) 
dzvp

>  <program>  (1) 
psi4

>  <initial_energy>  (1) 
-763524.8695616536 kilocalorie / mole

>  <final_energy>  (1) 
-763579.5376429901 kilocalorie / mole

$$$$
