BRI-00649-03
     RDKit          3D

 53 55  0  0  0  0  0  0  0  0999 V2000
    5.8776   -4.2120    1.4435 C   0  0  0  0  0  0  0  0  0  0  0  0
    4.9397   -3.8036    0.3032 C   0  0  0  0  0  0  0  0  0  0  0  0
    5.2879   -2.5199   -0.3266 N   0  0  0  0  0  0  0  0  0  0  0  0
    5.1457   -1.3133    0.5263 C   0  0  1  0  0  0  0  0  0  0  0  0
    4.5652   -1.6537    1.3889 H   0  0  0  0  0  0  0  0  0  0  0  0
    6.4888   -0.7663    1.0250 C   0  0  0  0  0  0  0  0  0  0  0  0
    4.3172   -0.2161   -0.1536 C   0  0  0  0  0  0  0  0  0  0  0  0
    3.0686   -0.7791   -0.6649 N   0  0  0  0  0  0  0  0  0  0  0  0
    2.0607    0.0439   -1.1244 C   0  0  0  0  0  0  0  0  0  0  0  0
    1.0021   -0.4841   -1.9068 C   0  0  0  0  0  0  0  0  0  0  0  0
   -0.0193    0.3588   -2.3097 C   0  0  0  0  0  0  0  0  0  0  0  0
    0.0345    1.6997   -1.9230 C   0  0  0  0  0  0  0  0  0  0  0  0
   -0.9523    2.5450   -2.3022 F   0  0  0  0  0  0  0  0  0  0  0  0
    1.1042    2.1433   -1.1570 C   0  0  0  0  0  0  0  0  0  0  0  0
    2.0969    1.3360   -0.7717 N   0  0  0  0  0  0  0  0  0  0  0  0
    1.1896    3.6002   -0.7277 C   0  0  0  0  0  0  0  0  0  0  0  0
    1.2319    4.4265   -1.8038 F   0  0  0  0  0  0  0  0  0  0  0  0
    2.2786    3.8467    0.0168 F   0  0  0  0  0  0  0  0  0  0  0  0
    0.1035    3.9584    0.0042 F   0  0  0  0  0  0  0  0  0  0  0  0
    5.9749   -2.4262   -1.5066 C   0  0  0  0  0  0  0  0  0  0  0  0
    6.4290   -1.3645   -1.9403 O   0  0  0  0  0  0  0  0  0  0  0  0
    6.0920   -3.6667   -2.3653 C   0  0  0  0  0  0  0  0  0  0  0  0
    7.3604   -4.2030   -2.6558 C   0  0  0  0  0  0  0  0  0  0  0  0
    7.4206   -5.2686   -3.5609 C   0  0  0  0  0  0  0  0  0  0  0  0
    8.6093   -5.8573   -3.8175 F   0  0  0  0  0  0  0  0  0  0  0  0
    6.2941   -5.7879   -4.1902 C   0  0  0  0  0  0  0  0  0  0  0  0
    5.0493   -5.2220   -3.9103 C   0  0  0  0  0  0  0  0  0  0  0  0
    4.9504   -4.1698   -2.9972 C   0  0  0  0  0  0  0  0  0  0  0  0
    8.5872   -3.6417   -2.0289 C   0  0  0  0  0  0  0  0  0  0  0  0
    8.5234   -3.3827   -0.7116 N   0  0  0  0  0  0  0  0  0  0  0  0
    9.6022   -2.8194   -0.1583 C   0  0  0  0  0  0  0  0  0  0  0  0
   10.7471   -2.5230   -0.8970 C   0  0  0  0  0  0  0  0  0  0  0  0
   10.7111   -2.8539   -2.2532 C   0  0  0  0  0  0  0  0  0  0  0  0
    9.6400   -3.4108   -2.8275 N   0  0  0  0  0  0  0  0  0  0  0  0
    6.9054   -4.2707    1.0785 H   0  0  0  0  0  0  0  0  0  0  0  0
    5.8379   -3.5040    2.2769 H   0  0  0  0  0  0  0  0  0  0  0  0
    5.5784   -5.1933    1.8278 H   0  0  0  0  0  0  0  0  0  0  0  0
    4.9503   -4.5775   -0.4623 H   0  0  0  0  0  0  0  0  0  0  0  0
    3.9086   -3.7274    0.6686 H   0  0  0  0  0  0  0  0  0  0  0  0
    7.0908   -0.3979    0.1936 H   0  0  0  0  0  0  0  0  0  0  0  0
    7.0518   -1.5457    1.5438 H   0  0  0  0  0  0  0  0  0  0  0  0
    6.3129    0.0561    1.7267 H   0  0  0  0  0  0  0  0  0  0  0  0
    4.0697    0.5430    0.5904 H   0  0  0  0  0  0  0  0  0  0  0  0
    4.8932    0.2673   -0.9485 H   0  0  0  0  0  0  0  0  0  0  0  0
    3.2000   -1.6268   -1.2040 H   0  0  0  0  0  0  0  0  0  0  0  0
    0.9921   -1.5356   -2.1814 H   0  0  0  0  0  0  0  0  0  0  0  0
   -0.8510    0.0044   -2.9112 H   0  0  0  0  0  0  0  0  0  0  0  0
    6.4070   -6.6189   -4.8794 H   0  0  0  0  0  0  0  0  0  0  0  0
    4.1592   -5.6043   -4.4020 H   0  0  0  0  0  0  0  0  0  0  0  0
    3.9807   -3.7282   -2.7830 H   0  0  0  0  0  0  0  0  0  0  0  0
    9.5446   -2.6022    0.9075 H   0  0  0  0  0  0  0  0  0  0  0  0
   11.6185   -2.0623   -0.4427 H   0  0  0  0  0  0  0  0  0  0  0  0
   11.5637   -2.6627   -2.9033 H   0  0  0  0  0  0  0  0  0  0  0  0
  1  2  1  0
  1 35  1  0
  1 36  1  0
  1 37  1  0
  2  3  1  0
  2 38  1  0
  2 39  1  0
  3  4  1  0
  3 20  1  0
  4  5  1  1
  4  6  1  0
  4  7  1  0
  6 40  1  0
  6 41  1  0
  6 42  1  0
  7  8  1  0
  7 43  1  0
  7 44  1  0
  8  9  1  0
  8 45  1  0
  9 10  2  0
  9 15  1  0
 10 11  1  0
 10 46  1  0
 11 12  2  0
 11 47  1  0
 12 13  1  0
 12 14  1  0
 14 15  2  0
 14 16  1  0
 16 17  1  0
 16 18  1  0
 16 19  1  0
 20 21  2  0
 20 22  1  0
 22 23  1  0
 22 28  2  0
 23 24  2  0
 23 29  1  0
 24 25  1  0
 24 26  1  0
 26 27  2  0
 26 48  1  0
 27 28  1  0
 27 49  1  0
 28 50  1  0
 29 30  2  0
 29 34  1  0
 30 31  1  0
 31 32  2  0
 31 51  1  0
 32 33  1  0
 32 52  1  0
 33 34  2  0
 33 53  1  0
M  END
>  <group_name>  (1) 
BRI

>  <molecule_index>  (1) 
00649

>  <conformer_index>  (1) 
03

>  <method>  (1) 
b3lyp-d3bj

>  <basis>  (1) 
dzvp

>  <program>  (1) 
psi4

>  <initial_energy>  (1) 
-1066052.3358771158 kilocalorie / mole

>  <final_energy>  (1) 
-1066100.57433826 kilocalorie / mole

$$$$
