BRI-00739-00
     RDKit          3D

 34 35  0  0  0  0  0  0  0  0999 V2000
    8.7195    1.5729    1.0033 C   0  0  0  0  0  0  0  0  0  0  0  0
    7.4885    0.7909    1.0335 N   0  0  0  0  0  0  0  0  0  0  0  0
    7.5113   -0.5420    0.8443 C   0  0  0  0  0  0  0  0  0  0  0  0
    8.5307   -1.1943    0.6224 O   0  0  0  0  0  0  0  0  0  0  0  0
    6.1453   -1.2874    0.9502 C   0  0  2  0  0  0  0  0  0  0  0  0
    6.1539   -2.4900    0.0548 C   0  0  0  0  0  0  0  0  0  0  0  0
    5.1188   -2.9936   -0.5127 N   0  0  0  0  0  0  0  0  0  0  0  0
    3.8690   -2.3683   -0.3481 C   0  0  0  0  0  0  0  0  0  0  0  0
    2.7509   -3.1916   -0.9170 C   0  0  0  0  0  0  0  0  0  0  0  0
    3.7053   -1.1400    0.2433 C   0  0  0  0  0  0  0  0  0  0  0  0
    4.8536   -0.4812    0.8772 C   0  0  0  0  0  0  0  0  0  0  0  0
    4.7675    0.6396    1.3910 O   0  0  0  0  0  0  0  0  0  0  0  0
    2.4097   -0.4162    0.2547 C   0  0  0  0  0  0  0  0  0  0  0  0
    1.7059   -0.1743   -0.9346 C   0  0  0  0  0  0  0  0  0  0  0  0
    0.4893    0.5009   -0.8658 C   0  0  0  0  0  0  0  0  0  0  0  0
   -0.0607    0.9507    0.2659 N   0  0  0  0  0  0  0  0  0  0  0  0
    0.6212    0.7343    1.3957 C   0  0  0  0  0  0  0  0  0  0  0  0
    1.8486    0.0679    1.4424 C   0  0  0  0  0  0  0  0  0  0  0  0
   -0.3248    0.7709   -2.1190 C   0  0  0  0  0  0  0  0  0  0  0  0
    0.3086    0.3147   -3.2317 F   0  0  0  0  0  0  0  0  0  0  0  0
   -0.5482    2.0898   -2.2979 F   0  0  0  0  0  0  0  0  0  0  0  0
   -1.5290    0.1578   -2.0675 F   0  0  0  0  0  0  0  0  0  0  0  0
    9.3748    1.3108    1.8405 H   0  0  0  0  0  0  0  0  0  0  0  0
    8.4599    2.6310    1.0650 H   0  0  0  0  0  0  0  0  0  0  0  0
    9.2636    1.3873    0.0740 H   0  0  0  0  0  0  0  0  0  0  0  0
    6.6012    1.2156    1.2922 H   0  0  0  0  0  0  0  0  0  0  0  0
    6.1555   -1.6874    1.9790 H   0  0  0  0  0  0  0  0  0  0  0  0
    7.1211   -2.9608   -0.1144 H   0  0  0  0  0  0  0  0  0  0  0  0
    2.8845   -4.2280   -0.5913 H   0  0  0  0  0  0  0  0  0  0  0  0
    2.8167   -3.2025   -2.0112 H   0  0  0  0  0  0  0  0  0  0  0  0
    1.7633   -2.8370   -0.6246 H   0  0  0  0  0  0  0  0  0  0  0  0
    2.1017   -0.4965   -1.8908 H   0  0  0  0  0  0  0  0  0  0  0  0
    0.1661    1.1112    2.3095 H   0  0  0  0  0  0  0  0  0  0  0  0
    2.3548   -0.0682    2.3919 H   0  0  0  0  0  0  0  0  0  0  0  0
  1  2  1  0
  1 23  1  0
  1 24  1  0
  1 25  1  0
  2  3  1  0
  2 26  1  0
  3  4  2  0
  3  5  1  0
  5  6  1  0
  5 11  1  0
  5 27  1  1
  6  7  2  0
  6 28  1  0
  7  8  1  0
  8  9  1  0
  8 10  2  0
  9 29  1  0
  9 30  1  0
  9 31  1  0
 10 11  1  0
 10 13  1  0
 11 12  2  0
 13 14  2  0
 13 18  1  0
 14 15  1  0
 14 32  1  0
 15 16  2  0
 15 19  1  0
 16 17  1  0
 17 18  2  0
 17 33  1  0
 18 34  1  0
 19 20  1  0
 19 21  1  0
 19 22  1  0
M  END
>  <group_name>  (1) 
BRI

>  <molecule_index>  (1) 
00739

>  <conformer_index>  (1) 
00

>  <method>  (1) 
b3lyp-d3bj

>  <basis>  (1) 
dzvp

>  <program>  (1) 
psi4

>  <initial_energy>  (1) 
-724846.4485889521 kilocalorie / mole

>  <final_energy>  (1) 
-724888.1463956453 kilocalorie / mole

$$$$
