BRI-00638-06
     RDKit          3D

 45 45  0  0  0  0  0  0  0  0999 V2000
   -3.0734    6.9092    2.3573 C   0  0  0  0  0  0  0  0  0  0  0  0
   -3.6117    5.8441    1.4173 C   0  0  0  0  0  0  0  0  0  0  0  0
   -2.6226    5.5782    0.4207 O   0  0  0  0  0  0  0  0  0  0  0  0
   -2.9964    4.5537   -0.4912 C   0  0  0  0  0  0  0  0  0  0  0  0
   -1.7488    4.1950   -1.2881 C   0  0  0  0  0  0  0  0  0  0  0  0
   -0.6183    3.8217   -0.4141 N   0  0  0  0  0  0  0  0  0  0  0  0
   -0.5925    2.2680    0.2351 S   0  0  0  0  0  0  0  0  0  0  0  0
   -1.6845    1.4939   -0.4030 O   0  0  0  0  0  0  0  0  0  0  0  0
   -0.5205    2.3738    1.6961 O   0  0  0  0  0  0  0  0  0  0  0  0
    1.0130    1.5734   -0.3860 C   0  0  0  0  0  0  0  0  0  0  0  0
    2.1393    2.4488    0.1642 C   0  0  0  0  0  0  0  0  0  0  0  0
    0.9803    1.5797   -1.9220 C   0  0  0  0  0  0  0  0  0  0  0  0
    1.1780    0.1136    0.1408 C   0  0  0  0  0  0  0  0  0  0  0  0
    2.2122   -0.2316    0.6778 O   0  0  0  0  0  0  0  0  0  0  0  0
    0.1005   -0.7151   -0.1226 N   0  0  0  0  0  0  0  0  0  0  0  0
   -0.0223   -2.0666    0.2408 C   0  0  0  0  0  0  0  0  0  0  0  0
   -1.3114   -2.5600    0.5317 C   0  0  0  0  0  0  0  0  0  0  0  0
   -1.4457   -3.9030    0.8558 C   0  0  0  0  0  0  0  0  0  0  0  0
   -0.3050   -4.7164    0.8961 C   0  0  0  0  0  0  0  0  0  0  0  0
    0.9131   -4.1168    0.5899 C   0  0  0  0  0  0  0  0  0  0  0  0
    1.0655   -2.8319    0.2570 N   0  0  0  0  0  0  0  0  0  0  0  0
    2.2060   -4.9157    0.6031 C   0  0  0  0  0  0  0  0  0  0  0  0
    3.0654   -4.4569    1.5371 F   0  0  0  0  0  0  0  0  0  0  0  0
    1.9742   -6.2266    0.8792 F   0  0  0  0  0  0  0  0  0  0  0  0
    2.8354   -4.8652   -0.5910 F   0  0  0  0  0  0  0  0  0  0  0  0
   -2.8498    7.8303    1.8107 H   0  0  0  0  0  0  0  0  0  0  0  0
   -3.8128    7.1363    3.1320 H   0  0  0  0  0  0  0  0  0  0  0  0
   -2.1574    6.5631    2.8455 H   0  0  0  0  0  0  0  0  0  0  0  0
   -4.5409    6.1821    0.9333 H   0  0  0  0  0  0  0  0  0  0  0  0
   -3.8366    4.9171    1.9655 H   0  0  0  0  0  0  0  0  0  0  0  0
   -3.7910    4.9031   -1.1689 H   0  0  0  0  0  0  0  0  0  0  0  0
   -3.3646    3.6701    0.0481 H   0  0  0  0  0  0  0  0  0  0  0  0
   -1.4154    5.0580   -1.8723 H   0  0  0  0  0  0  0  0  0  0  0  0
   -1.9570    3.3729   -1.9735 H   0  0  0  0  0  0  0  0  0  0  0  0
   -0.5304    4.4825    0.3601 H   0  0  0  0  0  0  0  0  0  0  0  0
    3.0947    2.0377   -0.1671 H   0  0  0  0  0  0  0  0  0  0  0  0
    2.0395    3.4688   -0.2140 H   0  0  0  0  0  0  0  0  0  0  0  0
    2.1380    2.4559    1.2549 H   0  0  0  0  0  0  0  0  0  0  0  0
    0.1431    1.0042   -2.3215 H   0  0  0  0  0  0  0  0  0  0  0  0
    0.9199    2.6063   -2.2927 H   0  0  0  0  0  0  0  0  0  0  0  0
    1.9094    1.1340   -2.2892 H   0  0  0  0  0  0  0  0  0  0  0  0
   -0.7678   -0.2503   -0.3825 H   0  0  0  0  0  0  0  0  0  0  0  0
   -2.1697   -1.8940    0.5151 H   0  0  0  0  0  0  0  0  0  0  0  0
   -2.4239   -4.3148    1.0876 H   0  0  0  0  0  0  0  0  0  0  0  0
   -0.3631   -5.7676    1.1518 H   0  0  0  0  0  0  0  0  0  0  0  0
  1  2  1  0
  1 26  1  0
  1 27  1  0
  1 28  1  0
  2  3  1  0
  2 29  1  0
  2 30  1  0
  3  4  1  0
  4  5  1  0
  4 31  1  0
  4 32  1  0
  5  6  1  0
  5 33  1  0
  5 34  1  0
  6  7  1  0
  6 35  1  0
  7  8  2  0
  7  9  2  0
  7 10  1  0
 10 11  1  0
 10 12  1  0
 10 13  1  0
 11 36  1  0
 11 37  1  0
 11 38  1  0
 12 39  1  0
 12 40  1  0
 12 41  1  0
 13 14  2  0
 13 15  1  0
 15 16  1  0
 15 42  1  0
 16 17  2  0
 16 21  1  0
 17 18  1  0
 17 43  1  0
 18 19  2  0
 18 44  1  0
 19 20  1  0
 19 45  1  0
 20 21  2  0
 20 22  1  0
 22 23  1  0
 22 24  1  0
 22 25  1  0
M  END
>  <group_name>  (1) 
BRI

>  <molecule_index>  (1) 
00638

>  <conformer_index>  (1) 
06

>  <method>  (1) 
b3lyp-d3bj

>  <basis>  (1) 
dzvp

>  <program>  (1) 
psi4

>  <initial_energy>  (1) 
-1072127.8680413147 kilocalorie / mole

>  <final_energy>  (1) 
-1072175.6079770206 kilocalorie / mole

$$$$
