BRI-00739-02
     RDKit          3D

 34 35  0  0  0  0  0  0  0  0999 V2000
    8.4011    0.0918    2.6405 C   0  0  0  0  0  0  0  0  0  0  0  0
    7.2397   -0.3272    1.8638 N   0  0  0  0  0  0  0  0  0  0  0  0
    7.3872   -1.0284    0.7241 C   0  0  0  0  0  0  0  0  0  0  0  0
    8.4733   -1.3601    0.2499 O   0  0  0  0  0  0  0  0  0  0  0  0
    6.0776   -1.4676    0.0002 C   0  0  2  0  0  0  0  0  0  0  0  0
    6.3248   -1.5835   -1.4743 C   0  0  0  0  0  0  0  0  0  0  0  0
    5.4414   -1.3985   -2.3870 N   0  0  0  0  0  0  0  0  0  0  0  0
    4.1412   -1.0064   -2.0178 C   0  0  0  0  0  0  0  0  0  0  0  0
    3.1960   -1.0263   -3.1829 C   0  0  0  0  0  0  0  0  0  0  0  0
    3.7943   -0.6291   -0.7451 C   0  0  0  0  0  0  0  0  0  0  0  0
    4.7687   -0.7655    0.3446 C   0  0  0  0  0  0  0  0  0  0  0  0
    4.5184   -0.3975    1.4972 O   0  0  0  0  0  0  0  0  0  0  0  0
    2.4674   -0.0577   -0.4040 C   0  0  0  0  0  0  0  0  0  0  0  0
    1.6735   -0.6206    0.6072 C   0  0  0  0  0  0  0  0  0  0  0  0
    0.4341   -0.0467    0.8742 C   0  0  0  0  0  0  0  0  0  0  0  0
   -0.0579    1.0254    0.2418 N   0  0  0  0  0  0  0  0  0  0  0  0
    0.7082    1.5700   -0.7065 C   0  0  0  0  0  0  0  0  0  0  0  0
    1.9661    1.0711   -1.0611 C   0  0  0  0  0  0  0  0  0  0  0  0
   -0.4793   -0.6232    1.9420 C   0  0  0  0  0  0  0  0  0  0  0  0
    0.0800   -1.7023    2.5475 F   0  0  0  0  0  0  0  0  0  0  0  0
   -0.7519    0.2819    2.9065 F   0  0  0  0  0  0  0  0  0  0  0  0
   -1.6596   -1.0263    1.4187 F   0  0  0  0  0  0  0  0  0  0  0  0
    9.0802    0.6858    2.0232 H   0  0  0  0  0  0  0  0  0  0  0  0
    8.9537   -0.7743    3.0184 H   0  0  0  0  0  0  0  0  0  0  0  0
    8.0560    0.6955    3.4814 H   0  0  0  0  0  0  0  0  0  0  0  0
    6.2932   -0.1609    2.1976 H   0  0  0  0  0  0  0  0  0  0  0  0
    5.9271   -2.5026    0.3541 H   0  0  0  0  0  0  0  0  0  0  0  0
    7.3372   -1.8478   -1.7759 H   0  0  0  0  0  0  0  0  0  0  0  0
    3.3289   -1.9708   -3.7202 H   0  0  0  0  0  0  0  0  0  0  0  0
    2.1527   -0.9116   -2.8916 H   0  0  0  0  0  0  0  0  0  0  0  0
    3.4610   -0.2312   -3.8896 H   0  0  0  0  0  0  0  0  0  0  0  0
    2.0134   -1.4823    1.1682 H   0  0  0  0  0  0  0  0  0  0  0  0
    0.3030    2.4471   -1.2077 H   0  0  0  0  0  0  0  0  0  0  0  0
    2.5472    1.5663   -1.8334 H   0  0  0  0  0  0  0  0  0  0  0  0
  1  2  1  0
  1 23  1  0
  1 24  1  0
  1 25  1  0
  2  3  1  0
  2 26  1  0
  3  4  2  0
  3  5  1  0
  5  6  1  0
  5 11  1  0
  5 27  1  1
  6  7  2  0
  6 28  1  0
  7  8  1  0
  8  9  1  0
  8 10  2  0
  9 29  1  0
  9 30  1  0
  9 31  1  0
 10 11  1  0
 10 13  1  0
 11 12  2  0
 13 14  2  0
 13 18  1  0
 14 15  1  0
 14 32  1  0
 15 16  2  0
 15 19  1  0
 16 17  1  0
 17 18  2  0
 17 33  1  0
 18 34  1  0
 19 20  1  0
 19 21  1  0
 19 22  1  0
M  END
>  <group_name>  (1) 
BRI

>  <molecule_index>  (1) 
00739

>  <conformer_index>  (1) 
02

>  <method>  (1) 
b3lyp-d3bj

>  <basis>  (1) 
dzvp

>  <program>  (1) 
psi4

>  <initial_energy>  (1) 
-724841.6448801887 kilocalorie / mole

>  <final_energy>  (1) 
-724888.0370844738 kilocalorie / mole

$$$$
