BRI-01545-03
     RDKit          3D

 40 41  0  0  0  0  0  0  0  0999 V2000
    0.4090    8.3771   -2.2359 C   0  0  0  0  0  0  0  0  0  0  0  0
   -0.0321    6.9284   -2.0242 C   0  0  0  0  0  0  0  0  0  0  0  0
   -0.3265    6.2372   -3.3548 C   0  0  0  0  0  0  0  0  0  0  0  0
   -1.2207    6.8042   -1.0692 C   0  0  0  0  0  0  0  0  0  0  0  0
    1.1065    6.1301   -1.4981 O   0  0  0  0  0  0  0  0  0  0  0  0
    1.6471    6.3696   -0.3013 C   0  0  0  0  0  0  0  0  0  0  0  0
    1.3894    7.2905    0.4519 O   0  0  0  0  0  0  0  0  0  0  0  0
    2.7141    5.3253    0.0319 C   0  0  2  0  0  0  0  0  0  0  0  0
    2.8711    5.3743    1.1148 H   0  0  0  0  0  0  0  0  0  0  0  0
    4.0351    5.6000   -0.7275 C   0  0  0  0  0  0  0  0  0  0  0  0
    4.6226    4.2045   -0.9557 C   0  0  0  0  0  0  0  0  0  0  0  0
    3.4156    3.2766   -0.9641 C   0  0  0  0  0  0  0  0  0  0  0  0
    3.3844    2.1244   -1.3628 O   0  0  0  0  0  0  0  0  0  0  0  0
    2.3511    3.9706   -0.3914 N   0  0  0  0  0  0  0  0  0  0  0  0
    1.0843    3.4261   -0.1095 C   0  0  0  0  0  0  0  0  0  0  0  0
    0.3171    3.9193    0.9527 C   0  0  0  0  0  0  0  0  0  0  0  0
   -0.9573    3.3969    1.1724 C   0  0  0  0  0  0  0  0  0  0  0  0
   -1.4141    2.3981    0.3169 C   0  0  0  0  0  0  0  0  0  0  0  0
   -0.6944    1.9127   -0.7010 N   0  0  0  0  0  0  0  0  0  0  0  0
    0.5236    2.4069   -0.9113 C   0  0  0  0  0  0  0  0  0  0  0  0
   -2.7978    1.7992    0.4676 C   0  0  0  0  0  0  0  0  0  0  0  0
   -3.5782    2.0729   -0.6053 F   0  0  0  0  0  0  0  0  0  0  0  0
   -3.4361    2.2955    1.5605 F   0  0  0  0  0  0  0  0  0  0  0  0
   -2.7567    0.4568    0.6022 F   0  0  0  0  0  0  0  0  0  0  0  0
    0.6177    8.8744   -1.2881 H   0  0  0  0  0  0  0  0  0  0  0  0
    1.3046    8.4155   -2.8643 H   0  0  0  0  0  0  0  0  0  0  0  0
   -0.3880    8.9238   -2.7500 H   0  0  0  0  0  0  0  0  0  0  0  0
   -1.1647    6.7319   -3.8539 H   0  0  0  0  0  0  0  0  0  0  0  0
    0.5450    6.2811   -4.0146 H   0  0  0  0  0  0  0  0  0  0  0  0
   -0.5878    5.1875   -3.1937 H   0  0  0  0  0  0  0  0  0  0  0  0
   -1.0234    7.2952   -0.1154 H   0  0  0  0  0  0  0  0  0  0  0  0
   -2.0968    7.2745   -1.5263 H   0  0  0  0  0  0  0  0  0  0  0  0
   -1.4563    5.7514   -0.8880 H   0  0  0  0  0  0  0  0  0  0  0  0
    4.6825    6.2698   -0.1598 H   0  0  0  0  0  0  0  0  0  0  0  0
    3.8060    6.0710   -1.6867 H   0  0  0  0  0  0  0  0  0  0  0  0
    5.1845    4.0984   -1.8849 H   0  0  0  0  0  0  0  0  0  0  0  0
    5.2762    3.8901   -0.1340 H   0  0  0  0  0  0  0  0  0  0  0  0
    0.6920    4.7030    1.6022 H   0  0  0  0  0  0  0  0  0  0  0  0
   -1.5741    3.7618    1.9859 H   0  0  0  0  0  0  0  0  0  0  0  0
    1.0865    1.9914   -1.7384 H   0  0  0  0  0  0  0  0  0  0  0  0
  1  2  1  0
  1 25  1  0
  1 26  1  0
  1 27  1  0
  2  3  1  0
  2  4  1  0
  2  5  1  0
  3 28  1  0
  3 29  1  0
  3 30  1  0
  4 31  1  0
  4 32  1  0
  4 33  1  0
  5  6  1  0
  6  7  2  0
  6  8  1  0
  8  9  1  1
  8 10  1  0
  8 14  1  0
 10 11  1  0
 10 34  1  0
 10 35  1  0
 11 12  1  0
 11 36  1  0
 11 37  1  0
 12 13  2  0
 12 14  1  0
 14 15  1  0
 15 16  2  0
 15 20  1  0
 16 17  1  0
 16 38  1  0
 17 18  2  0
 17 39  1  0
 18 19  1  0
 18 21  1  0
 19 20  2  0
 20 40  1  0
 21 22  1  0
 21 23  1  0
 21 24  1  0
M  END
>  <group_name>  (1) 
BRI

>  <molecule_index>  (1) 
01545

>  <conformer_index>  (1) 
03

>  <method>  (1) 
b3lyp-d3bj

>  <basis>  (1) 
dzvp

>  <program>  (1) 
psi4

>  <initial_energy>  (1) 
-763511.6473194985 kilocalorie / mole

>  <final_energy>  (1) 
-763579.537640122 kilocalorie / mole

$$$$
