BRI-00647-00
     RDKit          3D

 40 40  0  0  0  0  0  0  0  0999 V2000
   -3.2883   -1.4733    6.2826 C   0  0  0  0  0  0  0  0  0  0  0  0
   -1.7677   -1.3206    6.3526 C   0  0  0  0  0  0  0  0  0  0  0  0
   -1.1148   -2.5954    6.8865 C   0  0  0  0  0  0  0  0  0  0  0  0
   -1.3349   -0.1001    7.1666 C   0  0  0  0  0  0  0  0  0  0  0  0
   -1.2041   -1.2310    4.9790 O   0  0  0  0  0  0  0  0  0  0  0  0
   -1.5678   -0.2469    4.1464 C   0  0  0  0  0  0  0  0  0  0  0  0
   -2.3186    0.6996    4.4115 O   0  0  0  0  0  0  0  0  0  0  0  0
   -0.9881   -0.4033    2.9214 N   0  0  0  0  0  0  0  0  0  0  0  0
   -1.1896    0.5708    1.8480 C   0  0  1  0  0  0  0  0  0  0  0  0
   -0.0638    0.4508    0.8106 C   0  0  0  0  0  0  0  0  0  0  0  0
    0.0245    1.6590   -0.0937 C   0  0  0  0  0  0  0  0  0  0  0  0
    0.8258    2.7531    0.2748 C   0  0  0  0  0  0  0  0  0  0  0  0
    0.9498    3.8689   -0.4457 N   0  0  0  0  0  0  0  0  0  0  0  0
    0.2651    3.9371   -1.5923 C   0  0  0  0  0  0  0  0  0  0  0  0
   -0.5572    2.9164   -2.0677 C   0  0  0  0  0  0  0  0  0  0  0  0
   -0.6783    1.7566   -1.2986 C   0  0  0  0  0  0  0  0  0  0  0  0
    0.4461    5.2314   -2.3645 C   0  0  0  0  0  0  0  0  0  0  0  0
    0.0371    6.3012   -1.6460 F   0  0  0  0  0  0  0  0  0  0  0  0
    1.7404    5.4382   -2.6957 F   0  0  0  0  0  0  0  0  0  0  0  0
   -0.2682    5.2258   -3.5195 F   0  0  0  0  0  0  0  0  0  0  0  0
   -2.5870    0.3780    1.2095 C   0  0  0  0  0  0  0  0  0  0  0  0
   -3.6215    0.7204    1.9942 O   0  0  0  0  0  0  0  0  0  0  0  0
   -2.7503   -0.0656    0.0915 O   0  0  0  0  0  0  0  0  0  0  0  0
   -3.6720   -1.6918    7.2841 H   0  0  0  0  0  0  0  0  0  0  0  0
   -3.7673   -0.5637    5.9196 H   0  0  0  0  0  0  0  0  0  0  0  0
   -3.5598   -2.3064    5.6268 H   0  0  0  0  0  0  0  0  0  0  0  0
   -1.3931   -3.4585    6.2749 H   0  0  0  0  0  0  0  0  0  0  0  0
   -1.4436   -2.7780    7.9134 H   0  0  0  0  0  0  0  0  0  0  0  0
   -0.0249   -2.5026    6.8827 H   0  0  0  0  0  0  0  0  0  0  0  0
   -0.2461    0.0087    7.1414 H   0  0  0  0  0  0  0  0  0  0  0  0
   -1.6381   -0.2380    8.2093 H   0  0  0  0  0  0  0  0  0  0  0  0
   -1.7932    0.8140    6.7882 H   0  0  0  0  0  0  0  0  0  0  0  0
   -0.5180   -1.2776    2.7228 H   0  0  0  0  0  0  0  0  0  0  0  0
   -1.1585    1.5634    2.3076 H   0  0  0  0  0  0  0  0  0  0  0  0
    0.8790    0.3430    1.3570 H   0  0  0  0  0  0  0  0  0  0  0  0
   -0.2204   -0.4544    0.2173 H   0  0  0  0  0  0  0  0  0  0  0  0
    1.4011    2.7191    1.2004 H   0  0  0  0  0  0  0  0  0  0  0  0
   -1.0886    3.0247   -3.0066 H   0  0  0  0  0  0  0  0  0  0  0  0
   -1.3227    0.9440   -1.6178 H   0  0  0  0  0  0  0  0  0  0  0  0
   -3.2973    0.9537    2.9000 H   0  0  0  0  0  0  0  0  0  0  0  0
  1  2  1  0
  1 24  1  0
  1 25  1  0
  1 26  1  0
  2  3  1  0
  2  4  1  0
  2  5  1  0
  3 27  1  0
  3 28  1  0
  3 29  1  0
  4 30  1  0
  4 31  1  0
  4 32  1  0
  5  6  1  0
  6  7  2  0
  6  8  1  0
  8  9  1  0
  8 33  1  0
  9 10  1  0
  9 21  1  0
  9 34  1  1
 10 11  1  0
 10 35  1  0
 10 36  1  0
 11 12  2  0
 11 16  1  0
 12 13  1  0
 12 37  1  0
 13 14  2  0
 14 15  1  0
 14 17  1  0
 15 16  2  0
 15 38  1  0
 16 39  1  0
 17 18  1  0
 17 19  1  0
 17 20  1  0
 21 22  1  0
 21 23  2  0
 22 40  1  0
M  END
>  <group_name>  (1) 
BRI

>  <molecule_index>  (1) 
00647

>  <conformer_index>  (1) 
00

>  <method>  (1) 
b3lyp-d3bj

>  <basis>  (1) 
dzvp

>  <program>  (1) 
psi4

>  <initial_energy>  (1) 
-786824.8417778321 kilocalorie / mole

>  <final_energy>  (1) 
-786884.6155147005 kilocalorie / mole

$$$$
