BRI-01545-05
     RDKit          3D

 40 41  0  0  0  0  0  0  0  0999 V2000
    0.8553    8.3524   -2.9384 C   0  0  0  0  0  0  0  0  0  0  0  0
   -0.0434    7.7598   -1.8516 C   0  0  0  0  0  0  0  0  0  0  0  0
   -0.5618    8.8495   -0.9140 C   0  0  0  0  0  0  0  0  0  0  0  0
   -1.1963    6.9340   -2.4258 C   0  0  0  0  0  0  0  0  0  0  0  0
    0.7693    6.9097   -0.9384 O   0  0  0  0  0  0  0  0  0  0  0  0
    1.4173    5.8245   -1.3883 C   0  0  0  0  0  0  0  0  0  0  0  0
    1.4231    5.3984   -2.5260 O   0  0  0  0  0  0  0  0  0  0  0  0
    2.2296    5.1875   -0.2524 C   0  0  2  0  0  0  0  0  0  0  0  0
    1.8220    5.5042    0.7092 H   0  0  0  0  0  0  0  0  0  0  0  0
    3.7210    5.5747   -0.3942 C   0  0  0  0  0  0  0  0  0  0  0  0
    4.2974    4.4576   -1.2676 C   0  0  0  0  0  0  0  0  0  0  0  0
    3.4001    3.2597   -0.9939 C   0  0  0  0  0  0  0  0  0  0  0  0
    3.6412    2.0989   -1.2757 O   0  0  0  0  0  0  0  0  0  0  0  0
    2.2425    3.7310   -0.3622 N   0  0  0  0  0  0  0  0  0  0  0  0
    1.0991    2.9735   -0.0503 C   0  0  0  0  0  0  0  0  0  0  0  0
   -0.1090    3.6111    0.2715 C   0  0  0  0  0  0  0  0  0  0  0  0
   -1.2246    2.8428    0.6012 C   0  0  0  0  0  0  0  0  0  0  0  0
   -1.0941    1.4573    0.5992 C   0  0  0  0  0  0  0  0  0  0  0  0
    0.0468    0.8295    0.2981 N   0  0  0  0  0  0  0  0  0  0  0  0
    1.1160    1.5572   -0.0192 C   0  0  0  0  0  0  0  0  0  0  0  0
   -2.2539    0.5506    0.9560 C   0  0  0  0  0  0  0  0  0  0  0  0
   -1.9902   -0.1925    2.0555 F   0  0  0  0  0  0  0  0  0  0  0  0
   -2.5527   -0.3058   -0.0454 F   0  0  0  0  0  0  0  0  0  0  0  0
   -3.3796    1.2677    1.2201 F   0  0  0  0  0  0  0  0  0  0  0  0
    0.2835    9.0854   -3.5160 H   0  0  0  0  0  0  0  0  0  0  0  0
    1.7087    8.8695   -2.4881 H   0  0  0  0  0  0  0  0  0  0  0  0
    1.2218    7.5841   -3.6199 H   0  0  0  0  0  0  0  0  0  0  0  0
   -1.1874    9.5528   -1.4711 H   0  0  0  0  0  0  0  0  0  0  0  0
    0.2687    9.4033   -0.4667 H   0  0  0  0  0  0  0  0  0  0  0  0
   -1.1622    8.4149   -0.1094 H   0  0  0  0  0  0  0  0  0  0  0  0
   -1.8664    7.5944   -2.9851 H   0  0  0  0  0  0  0  0  0  0  0  0
   -0.8372    6.1536   -3.0970 H   0  0  0  0  0  0  0  0  0  0  0  0
   -1.7748    6.4718   -1.6196 H   0  0  0  0  0  0  0  0  0  0  0  0
    4.1801    5.5661    0.5981 H   0  0  0  0  0  0  0  0  0  0  0  0
    3.8430    6.5745   -0.8156 H   0  0  0  0  0  0  0  0  0  0  0  0
    4.2188    4.6875   -2.3345 H   0  0  0  0  0  0  0  0  0  0  0  0
    5.3357    4.2034   -1.0485 H   0  0  0  0  0  0  0  0  0  0  0  0
   -0.1996    4.6911    0.2684 H   0  0  0  0  0  0  0  0  0  0  0  0
   -2.1681    3.3147    0.8512 H   0  0  0  0  0  0  0  0  0  0  0  0
    2.0211    1.0175   -0.2646 H   0  0  0  0  0  0  0  0  0  0  0  0
  1  2  1  0
  1 25  1  0
  1 26  1  0
  1 27  1  0
  2  3  1  0
  2  4  1  0
  2  5  1  0
  3 28  1  0
  3 29  1  0
  3 30  1  0
  4 31  1  0
  4 32  1  0
  4 33  1  0
  5  6  1  0
  6  7  2  0
  6  8  1  0
  8  9  1  1
  8 10  1  0
  8 14  1  0
 10 11  1  0
 10 34  1  0
 10 35  1  0
 11 12  1  0
 11 36  1  0
 11 37  1  0
 12 13  2  0
 12 14  1  0
 14 15  1  0
 15 16  2  0
 15 20  1  0
 16 17  1  0
 16 38  1  0
 17 18  2  0
 17 39  1  0
 18 19  1  0
 18 21  1  0
 19 20  2  0
 20 40  1  0
 21 22  1  0
 21 23  1  0
 21 24  1  0
M  END
>  <group_name>  (1) 
BRI

>  <molecule_index>  (1) 
01545

>  <conformer_index>  (1) 
05

>  <method>  (1) 
b3lyp-d3bj

>  <basis>  (1) 
dzvp

>  <program>  (1) 
psi4

>  <initial_energy>  (1) 
-763524.7114560409 kilocalorie / mole

>  <final_energy>  (1) 
-763579.243771434 kilocalorie / mole

$$$$
