BRI-01231-07
     RDKit          3D

 32 33  0  0  0  0  0  0  0  0999 V2000
   -4.2678    0.0379   -1.3483 C   0  0  0  0  0  0  0  0  0  0  0  0
   -3.2558    0.0379   -0.3366 O   0  0  0  0  0  0  0  0  0  0  0  0
   -2.6447   -1.1384   -0.0471 C   0  0  0  0  0  0  0  0  0  0  0  0
   -1.6579   -1.0903    0.9651 C   0  0  0  0  0  0  0  0  0  0  0  0
   -1.4134    0.0876    1.6467 O   0  0  0  0  0  0  0  0  0  0  0  0
   -0.8834    1.1578    0.9659 C   0  0  0  0  0  0  0  0  0  0  0  0
   -0.9456    2.3998    1.6188 C   0  0  0  0  0  0  0  0  0  0  0  0
   -0.4426    3.5126    1.0938 N   0  0  0  0  0  0  0  0  0  0  0  0
    0.1414    3.4328   -0.1086 C   0  0  0  0  0  0  0  0  0  0  0  0
    0.2555    2.2475   -0.8327 C   0  0  0  0  0  0  0  0  0  0  0  0
   -0.2684    1.0758   -0.2817 C   0  0  0  0  0  0  0  0  0  0  0  0
    0.6883    4.7410   -0.6418 C   0  0  0  0  0  0  0  0  0  0  0  0
    1.6577    5.2427    0.1575 F   0  0  0  0  0  0  0  0  0  0  0  0
   -0.2744    5.6844   -0.7452 F   0  0  0  0  0  0  0  0  0  0  0  0
    1.2306    4.5839   -1.8783 F   0  0  0  0  0  0  0  0  0  0  0  0
   -0.9846   -2.2396    1.3560 C   0  0  0  0  0  0  0  0  0  0  0  0
   -1.2618   -3.4624    0.7362 C   0  0  0  0  0  0  0  0  0  0  0  0
   -2.2195   -3.5201   -0.2828 C   0  0  0  0  0  0  0  0  0  0  0  0
   -2.9153   -2.3606   -0.6620 C   0  0  0  0  0  0  0  0  0  0  0  0
   -2.5937   -4.7894   -0.9905 C   0  0  0  0  0  0  0  0  0  0  0  0
   -1.6996   -5.8171   -0.9332 O   0  0  0  0  0  0  0  0  0  0  0  0
   -3.6330   -4.9279   -1.5979 O   0  0  0  0  0  0  0  0  0  0  0  0
   -4.6156    1.0685   -1.4135 H   0  0  0  0  0  0  0  0  0  0  0  0
   -5.1009   -0.6166   -1.0699 H   0  0  0  0  0  0  0  0  0  0  0  0
   -3.8575   -0.2743   -2.3151 H   0  0  0  0  0  0  0  0  0  0  0  0
   -1.4224    2.4683    2.5945 H   0  0  0  0  0  0  0  0  0  0  0  0
    0.7416    2.2343   -1.8018 H   0  0  0  0  0  0  0  0  0  0  0  0
   -0.1975    0.1316   -0.8116 H   0  0  0  0  0  0  0  0  0  0  0  0
   -0.2551   -2.1646    2.1565 H   0  0  0  0  0  0  0  0  0  0  0  0
   -0.7525   -4.3530    1.0951 H   0  0  0  0  0  0  0  0  0  0  0  0
   -3.6720   -2.4540   -1.4314 H   0  0  0  0  0  0  0  0  0  0  0  0
   -0.8622   -5.5151   -0.5440 H   0  0  0  0  0  0  0  0  0  0  0  0
  1  2  1  0
  1 23  1  0
  1 24  1  0
  1 25  1  0
  2  3  1  0
  3  4  2  0
  3 19  1  0
  4  5  1  0
  4 16  1  0
  5  6  1  0
  6  7  2  0
  6 11  1  0
  7  8  1  0
  7 26  1  0
  8  9  2  0
  9 10  1  0
  9 12  1  0
 10 11  2  0
 10 27  1  0
 11 28  1  0
 12 13  1  0
 12 14  1  0
 12 15  1  0
 16 17  2  0
 16 29  1  0
 17 18  1  0
 17 30  1  0
 18 19  2  0
 18 20  1  0
 19 31  1  0
 20 21  1  0
 20 22  2  0
 21 32  1  0
M  END
>  <group_name>  (1) 
BRI

>  <molecule_index>  (1) 
01231

>  <conformer_index>  (1) 
07

>  <method>  (1) 
b3lyp-d3bj

>  <basis>  (1) 
dzvp

>  <program>  (1) 
psi4

>  <initial_energy>  (1) 
-749794.0797039757 kilocalorie / mole

>  <final_energy>  (1) 
-749823.1156774056 kilocalorie / mole

$$$$
