BRI-01231-05
     RDKit          3D

 32 33  0  0  0  0  0  0  0  0999 V2000
   -4.2552    0.0283    0.5862 C   0  0  0  0  0  0  0  0  0  0  0  0
   -3.1497    0.0510   -0.3183 O   0  0  0  0  0  0  0  0  0  0  0  0
   -2.5177   -1.1246   -0.5827 C   0  0  0  0  0  0  0  0  0  0  0  0
   -1.3898   -1.0417   -1.4291 C   0  0  0  0  0  0  0  0  0  0  0  0
   -1.0258    0.1728   -1.9870 O   0  0  0  0  0  0  0  0  0  0  0  0
   -0.6120    1.1906   -1.1621 C   0  0  0  0  0  0  0  0  0  0  0  0
   -0.1881    0.9975    0.1622 C   0  0  0  0  0  0  0  0  0  0  0  0
    0.2364    2.0008    0.9293 N   0  0  0  0  0  0  0  0  0  0  0  0
    0.2615    3.2307    0.4073 C   0  0  0  0  0  0  0  0  0  0  0  0
   -0.1290    3.5221   -0.9012 C   0  0  0  0  0  0  0  0  0  0  0  0
   -0.5777    2.4749   -1.7041 C   0  0  0  0  0  0  0  0  0  0  0  0
    0.7559    4.3124    1.3453 C   0  0  0  0  0  0  0  0  0  0  0  0
    2.0214    4.0793    1.7614 F   0  0  0  0  0  0  0  0  0  0  0  0
    0.7499    5.5314    0.7440 F   0  0  0  0  0  0  0  0  0  0  0  0
   -0.0176    4.4103    2.4514 F   0  0  0  0  0  0  0  0  0  0  0  0
   -0.6739   -2.1798   -1.7820 C   0  0  0  0  0  0  0  0  0  0  0  0
   -1.0570   -3.4278   -1.2886 C   0  0  0  0  0  0  0  0  0  0  0  0
   -2.1612   -3.5201   -0.4357 C   0  0  0  0  0  0  0  0  0  0  0  0
   -2.8919   -2.3723   -0.0817 C   0  0  0  0  0  0  0  0  0  0  0  0
   -2.5365   -4.8620    0.0810 C   0  0  0  0  0  0  0  0  0  0  0  0
   -3.6287   -4.8358    0.8972 O   0  0  0  0  0  0  0  0  0  0  0  0
   -1.9514   -5.8987   -0.1766 O   0  0  0  0  0  0  0  0  0  0  0  0
   -3.9509   -0.3430    1.5713 H   0  0  0  0  0  0  0  0  0  0  0  0
   -4.5851    1.0635    0.6728 H   0  0  0  0  0  0  0  0  0  0  0  0
   -5.0733   -0.5866    0.1937 H   0  0  0  0  0  0  0  0  0  0  0  0
   -0.1932    0.0062    0.6085 H   0  0  0  0  0  0  0  0  0  0  0  0
   -0.0880    4.5370   -1.2803 H   0  0  0  0  0  0  0  0  0  0  0  0
   -0.9015    2.6355   -2.7279 H   0  0  0  0  0  0  0  0  0  0  0  0
    0.1817   -2.0690   -2.4412 H   0  0  0  0  0  0  0  0  0  0  0  0
   -0.5099   -4.3274   -1.5483 H   0  0  0  0  0  0  0  0  0  0  0  0
   -3.7468   -2.4743    0.5739 H   0  0  0  0  0  0  0  0  0  0  0  0
   -3.7768   -5.7603    1.1731 H   0  0  0  0  0  0  0  0  0  0  0  0
  1  2  1  0
  1 23  1  0
  1 24  1  0
  1 25  1  0
  2  3  1  0
  3  4  2  0
  3 19  1  0
  4  5  1  0
  4 16  1  0
  5  6  1  0
  6  7  2  0
  6 11  1  0
  7  8  1  0
  7 26  1  0
  8  9  2  0
  9 10  1  0
  9 12  1  0
 10 11  2  0
 10 27  1  0
 11 28  1  0
 12 13  1  0
 12 14  1  0
 12 15  1  0
 16 17  2  0
 16 29  1  0
 17 18  1  0
 17 30  1  0
 18 19  2  0
 18 20  1  0
 19 31  1  0
 20 21  1  0
 20 22  2  0
 21 32  1  0
M  END
>  <group_name>  (1) 
BRI

>  <molecule_index>  (1) 
01231

>  <conformer_index>  (1) 
05

>  <method>  (1) 
b3lyp-d3bj

>  <basis>  (1) 
dzvp

>  <program>  (1) 
psi4

>  <initial_energy>  (1) 
-749789.3490550998 kilocalorie / mole

>  <final_energy>  (1) 
-749830.2164050686 kilocalorie / mole

$$$$
