BRI-01231-01
     RDKit          3D

 32 33  0  0  0  0  0  0  0  0999 V2000
   -4.2512    0.2074   -1.1146 C   0  0  0  0  0  0  0  0  0  0  0  0
   -3.1863    0.1125   -0.1633 O   0  0  0  0  0  0  0  0  0  0  0  0
   -2.6295   -1.1068    0.0499 C   0  0  0  0  0  0  0  0  0  0  0  0
   -1.5463   -1.1424    0.9588 C   0  0  0  0  0  0  0  0  0  0  0  0
   -1.1529    0.0042    1.6261 O   0  0  0  0  0  0  0  0  0  0  0  0
   -0.6769    1.0723    0.9024 C   0  0  0  0  0  0  0  0  0  0  0  0
   -0.1948    0.9689   -0.4115 C   0  0  0  0  0  0  0  0  0  0  0  0
    0.2855    2.0163   -1.0799 N   0  0  0  0  0  0  0  0  0  0  0  0
    0.3120    3.2020   -0.4642 C   0  0  0  0  0  0  0  0  0  0  0  0
   -0.1317    3.4030    0.8443 C   0  0  0  0  0  0  0  0  0  0  0  0
   -0.6396    2.3094    1.5436 C   0  0  0  0  0  0  0  0  0  0  0  0
    0.8637    4.3417   -1.2963 C   0  0  0  0  0  0  0  0  0  0  0  0
    0.8889    5.5033   -0.5914 F   0  0  0  0  0  0  0  0  0  0  0  0
    0.1141    4.5626   -2.4014 F   0  0  0  0  0  0  0  0  0  0  0  0
    2.1268    4.0979   -1.7110 F   0  0  0  0  0  0  0  0  0  0  0  0
   -0.9195   -2.3411    1.2702 C   0  0  0  0  0  0  0  0  0  0  0  0
   -1.3374   -3.5308    0.6652 C   0  0  0  0  0  0  0  0  0  0  0  0
   -2.3894   -3.5056   -0.2575 C   0  0  0  0  0  0  0  0  0  0  0  0
   -3.0393   -2.2959   -0.5517 C   0  0  0  0  0  0  0  0  0  0  0  0
   -2.9112   -4.7333   -0.9436 C   0  0  0  0  0  0  0  0  0  0  0  0
   -2.0761   -5.8097   -1.0039 O   0  0  0  0  0  0  0  0  0  0  0  0
   -4.0166   -4.7992   -1.4357 O   0  0  0  0  0  0  0  0  0  0  0  0
   -4.5238    1.2620   -1.1437 H   0  0  0  0  0  0  0  0  0  0  0  0
   -5.1142   -0.3889   -0.7988 H   0  0  0  0  0  0  0  0  0  0  0  0
   -3.9193   -0.1144   -2.1077 H   0  0  0  0  0  0  0  0  0  0  0  0
   -0.2007    0.0145   -0.9325 H   0  0  0  0  0  0  0  0  0  0  0  0
   -0.0865    4.3849    1.3016 H   0  0  0  0  0  0  0  0  0  0  0  0
   -1.0080    2.4000    2.5609 H   0  0  0  0  0  0  0  0  0  0  0  0
   -0.1104   -2.3294    1.9940 H   0  0  0  0  0  0  0  0  0  0  0  0
   -0.8573   -4.4603    0.9601 H   0  0  0  0  0  0  0  0  0  0  0  0
   -3.8701   -2.3235   -1.2461 H   0  0  0  0  0  0  0  0  0  0  0  0
   -1.1841   -5.5605   -0.7100 H   0  0  0  0  0  0  0  0  0  0  0  0
  1  2  1  0
  1 23  1  0
  1 24  1  0
  1 25  1  0
  2  3  1  0
  3  4  2  0
  3 19  1  0
  4  5  1  0
  4 16  1  0
  5  6  1  0
  6  7  2  0
  6 11  1  0
  7  8  1  0
  7 26  1  0
  8  9  2  0
  9 10  1  0
  9 12  1  0
 10 11  2  0
 10 27  1  0
 11 28  1  0
 12 13  1  0
 12 14  1  0
 12 15  1  0
 16 17  2  0
 16 29  1  0
 17 18  1  0
 17 30  1  0
 18 19  2  0
 18 20  1  0
 19 31  1  0
 20 21  1  0
 20 22  2  0
 21 32  1  0
M  END
>  <group_name>  (1) 
BRI

>  <molecule_index>  (1) 
01231

>  <conformer_index>  (1) 
01

>  <method>  (1) 
b3lyp-d3bj

>  <basis>  (1) 
dzvp

>  <program>  (1) 
psi4

>  <initial_energy>  (1) 
-749789.1632973356 kilocalorie / mole

>  <final_energy>  (1) 
-749823.2276677615 kilocalorie / mole

$$$$
