BRI-00638-02
     RDKit          3D

 45 45  0  0  0  0  0  0  0  0999 V2000
    1.3010    6.2235    0.2453 C   0  0  0  0  0  0  0  0  0  0  0  0
   -0.0316    5.4996    0.3416 C   0  0  0  0  0  0  0  0  0  0  0  0
   -0.5248    5.6511    1.6796 O   0  0  0  0  0  0  0  0  0  0  0  0
   -1.8999    5.4027    1.8693 C   0  0  0  0  0  0  0  0  0  0  0  0
   -2.3261    3.9283    1.8614 C   0  0  0  0  0  0  0  0  0  0  0  0
   -2.5353    3.3661    0.5131 N   0  0  0  0  0  0  0  0  0  0  0  0
   -1.5578    2.1772   -0.1318 S   0  0  0  0  0  0  0  0  0  0  0  0
   -1.3698    2.5077   -1.5477 O   0  0  0  0  0  0  0  0  0  0  0  0
   -0.4057    1.9860    0.7695 O   0  0  0  0  0  0  0  0  0  0  0  0
   -2.5809    0.6320   -0.0258 C   0  0  0  0  0  0  0  0  0  0  0  0
   -2.9016    0.3688    1.4549 C   0  0  0  0  0  0  0  0  0  0  0  0
   -3.8493    0.8527   -0.8508 C   0  0  0  0  0  0  0  0  0  0  0  0
   -1.7793   -0.5678   -0.6077 C   0  0  0  0  0  0  0  0  0  0  0  0
   -2.3291   -1.3477   -1.3768 O   0  0  0  0  0  0  0  0  0  0  0  0
   -0.5017   -0.7190   -0.1360 N   0  0  0  0  0  0  0  0  0  0  0  0
    0.4200   -1.7304   -0.4505 C   0  0  0  0  0  0  0  0  0  0  0  0
    0.1614   -2.7912   -1.3405 C   0  0  0  0  0  0  0  0  0  0  0  0
    1.1792   -3.7153   -1.5526 C   0  0  0  0  0  0  0  0  0  0  0  0
    2.4062   -3.5750   -0.8930 C   0  0  0  0  0  0  0  0  0  0  0  0
    2.5425   -2.4864   -0.0358 C   0  0  0  0  0  0  0  0  0  0  0  0
    1.5851   -1.5850    0.1883 N   0  0  0  0  0  0  0  0  0  0  0  0
    3.8266   -2.2457    0.7386 C   0  0  0  0  0  0  0  0  0  0  0  0
    3.6204   -2.3212    2.0739 F   0  0  0  0  0  0  0  0  0  0  0  0
    4.3485   -1.0282    0.4782 F   0  0  0  0  0  0  0  0  0  0  0  0
    4.7740   -3.1666    0.4269 F   0  0  0  0  0  0  0  0  0  0  0  0
    2.0117    5.8060    0.9646 H   0  0  0  0  0  0  0  0  0  0  0  0
    1.7194    6.1054   -0.7595 H   0  0  0  0  0  0  0  0  0  0  0  0
    1.1816    7.2908    0.4548 H   0  0  0  0  0  0  0  0  0  0  0  0
    0.1003    4.4402    0.1026 H   0  0  0  0  0  0  0  0  0  0  0  0
   -0.7579    5.9252   -0.3693 H   0  0  0  0  0  0  0  0  0  0  0  0
   -2.5036    5.9657    1.1354 H   0  0  0  0  0  0  0  0  0  0  0  0
   -2.1352    5.8052    2.8602 H   0  0  0  0  0  0  0  0  0  0  0  0
   -1.5664    3.3318    2.3700 H   0  0  0  0  0  0  0  0  0  0  0  0
   -3.2666    3.8338    2.4180 H   0  0  0  0  0  0  0  0  0  0  0  0
   -2.8067    4.0207   -0.2162 H   0  0  0  0  0  0  0  0  0  0  0  0
   -3.4683   -0.5640    1.5282 H   0  0  0  0  0  0  0  0  0  0  0  0
   -2.0009    0.2764    2.0646 H   0  0  0  0  0  0  0  0  0  0  0  0
   -3.5224    1.1746    1.8557 H   0  0  0  0  0  0  0  0  0  0  0  0
   -4.4569   -0.0532   -0.8149 H   0  0  0  0  0  0  0  0  0  0  0  0
   -4.4234    1.6835   -0.4341 H   0  0  0  0  0  0  0  0  0  0  0  0
   -3.6108    1.0586   -1.8951 H   0  0  0  0  0  0  0  0  0  0  0  0
   -0.1096    0.0152    0.4556 H   0  0  0  0  0  0  0  0  0  0  0  0
   -0.7971   -2.8662   -1.8341 H   0  0  0  0  0  0  0  0  0  0  0  0
    1.0175   -4.5455   -2.2344 H   0  0  0  0  0  0  0  0  0  0  0  0
    3.2180   -4.2777   -1.0388 H   0  0  0  0  0  0  0  0  0  0  0  0
  1  2  1  0
  1 26  1  0
  1 27  1  0
  1 28  1  0
  2  3  1  0
  2 29  1  0
  2 30  1  0
  3  4  1  0
  4  5  1  0
  4 31  1  0
  4 32  1  0
  5  6  1  0
  5 33  1  0
  5 34  1  0
  6  7  1  0
  6 35  1  0
  7  8  2  0
  7  9  2  0
  7 10  1  0
 10 11  1  0
 10 12  1  0
 10 13  1  0
 11 36  1  0
 11 37  1  0
 11 38  1  0
 12 39  1  0
 12 40  1  0
 12 41  1  0
 13 14  2  0
 13 15  1  0
 15 16  1  0
 15 42  1  0
 16 17  2  0
 16 21  1  0
 17 18  1  0
 17 43  1  0
 18 19  2  0
 18 44  1  0
 19 20  1  0
 19 45  1  0
 20 21  2  0
 20 22  1  0
 22 23  1  0
 22 24  1  0
 22 25  1  0
M  END
>  <group_name>  (1) 
BRI

>  <molecule_index>  (1) 
00638

>  <conformer_index>  (1) 
02

>  <method>  (1) 
b3lyp-d3bj

>  <basis>  (1) 
dzvp

>  <program>  (1) 
psi4

>  <initial_energy>  (1) 
-1072096.7782172058 kilocalorie / mole

>  <final_energy>  (1) 
-1072177.1163137322 kilocalorie / mole

$$$$
