BRI-00647-06
     RDKit          3D

 40 40  0  0  0  0  0  0  0  0999 V2000
   -2.2876   -2.7979    5.4590 C   0  0  0  0  0  0  0  0  0  0  0  0
   -1.9302   -1.4635    6.1160 C   0  0  0  0  0  0  0  0  0  0  0  0
   -2.7675   -1.2317    7.3737 C   0  0  0  0  0  0  0  0  0  0  0  0
   -0.4367   -1.3375    6.4219 C   0  0  0  0  0  0  0  0  0  0  0  0
   -2.3600   -0.3389    5.2415 O   0  0  0  0  0  0  0  0  0  0  0  0
   -1.8749   -0.2032    4.0001 C   0  0  0  0  0  0  0  0  0  0  0  0
   -0.9923   -0.9035    3.4865 O   0  0  0  0  0  0  0  0  0  0  0  0
   -2.4895    0.8242    3.3496 N   0  0  0  0  0  0  0  0  0  0  0  0
   -2.0787    1.3551    2.0456 C   0  0  1  0  0  0  0  0  0  0  0  0
   -0.6069    1.8415    2.0546 C   0  0  0  0  0  0  0  0  0  0  0  0
   -0.1961    2.4479    0.7360 C   0  0  0  0  0  0  0  0  0  0  0  0
    0.5075    1.6933   -0.2172 C   0  0  0  0  0  0  0  0  0  0  0  0
    0.8898    2.1645   -1.4055 N   0  0  0  0  0  0  0  0  0  0  0  0
    0.5705    3.4274   -1.7006 C   0  0  0  0  0  0  0  0  0  0  0  0
   -0.1329    4.2733   -0.8429 C   0  0  0  0  0  0  0  0  0  0  0  0
   -0.5184    3.7648    0.3980 C   0  0  0  0  0  0  0  0  0  0  0  0
    1.0470    3.9035   -3.0613 C   0  0  0  0  0  0  0  0  0  0  0  0
    0.6648    5.1859   -3.2996 F   0  0  0  0  0  0  0  0  0  0  0  0
    2.3963    3.8667   -3.1544 F   0  0  0  0  0  0  0  0  0  0  0  0
    0.5514    3.1451   -4.0607 F   0  0  0  0  0  0  0  0  0  0  0  0
   -2.3534    0.3981    0.8626 C   0  0  0  0  0  0  0  0  0  0  0  0
   -1.7687   -0.8103    0.9114 O   0  0  0  0  0  0  0  0  0  0  0  0
   -3.0249    0.7530   -0.0818 O   0  0  0  0  0  0  0  0  0  0  0  0
   -3.3471   -2.8184    5.1859 H   0  0  0  0  0  0  0  0  0  0  0  0
   -1.6864   -2.9814    4.5682 H   0  0  0  0  0  0  0  0  0  0  0  0
   -2.1063   -3.6076    6.1729 H   0  0  0  0  0  0  0  0  0  0  0  0
   -2.5475   -0.2532    7.8101 H   0  0  0  0  0  0  0  0  0  0  0  0
   -3.8355   -1.2779    7.1421 H   0  0  0  0  0  0  0  0  0  0  0  0
   -2.5404   -2.0014    8.1166 H   0  0  0  0  0  0  0  0  0  0  0  0
    0.1687   -1.5016    5.5302 H   0  0  0  0  0  0  0  0  0  0  0  0
   -0.1608   -2.0831    7.1742 H   0  0  0  0  0  0  0  0  0  0  0  0
   -0.2130   -0.3465    6.8292 H   0  0  0  0  0  0  0  0  0  0  0  0
   -3.2405    1.2877    3.8436 H   0  0  0  0  0  0  0  0  0  0  0  0
   -2.7259    2.2112    1.8539 H   0  0  0  0  0  0  0  0  0  0  0  0
   -0.5145    2.5814    2.8565 H   0  0  0  0  0  0  0  0  0  0  0  0
    0.0508    1.0077    2.3072 H   0  0  0  0  0  0  0  0  0  0  0  0
    0.7729    0.6585   -0.0053 H   0  0  0  0  0  0  0  0  0  0  0  0
   -0.3658    5.2912   -1.1344 H   0  0  0  0  0  0  0  0  0  0  0  0
   -1.0626    4.3947    1.0987 H   0  0  0  0  0  0  0  0  0  0  0  0
   -1.3297   -0.9477    1.7908 H   0  0  0  0  0  0  0  0  0  0  0  0
  1  2  1  0
  1 24  1  0
  1 25  1  0
  1 26  1  0
  2  3  1  0
  2  4  1  0
  2  5  1  0
  3 27  1  0
  3 28  1  0
  3 29  1  0
  4 30  1  0
  4 31  1  0
  4 32  1  0
  5  6  1  0
  6  7  2  0
  6  8  1  0
  8  9  1  0
  8 33  1  0
  9 10  1  0
  9 21  1  0
  9 34  1  6
 10 11  1  0
 10 35  1  0
 10 36  1  0
 11 12  2  0
 11 16  1  0
 12 13  1  0
 12 37  1  0
 13 14  2  0
 14 15  1  0
 14 17  1  0
 15 16  2  0
 15 38  1  0
 16 39  1  0
 17 18  1  0
 17 19  1  0
 17 20  1  0
 21 22  1  0
 21 23  2  0
 22 40  1  0
M  END
>  <group_name>  (1) 
BRI

>  <molecule_index>  (1) 
00647

>  <conformer_index>  (1) 
06

>  <method>  (1) 
b3lyp-d3bj

>  <basis>  (1) 
dzvp

>  <program>  (1) 
psi4

>  <initial_energy>  (1) 
-786798.8652138356 kilocalorie / mole

>  <final_energy>  (1) 
-786882.4838646523 kilocalorie / mole

$$$$
