BRI-00647-08
     RDKit          3D

 40 40  0  0  0  0  0  0  0  0999 V2000
    0.6165   -0.0231    4.2650 C   0  0  0  0  0  0  0  0  0  0  0  0
   -0.6589   -0.5551    4.9244 C   0  0  0  0  0  0  0  0  0  0  0  0
   -0.6141   -0.3524    6.4393 C   0  0  0  0  0  0  0  0  0  0  0  0
   -0.9299   -2.0211    4.5783 C   0  0  0  0  0  0  0  0  0  0  0  0
   -1.8163    0.2809    4.5269 O   0  0  0  0  0  0  0  0  0  0  0  0
   -2.1663    0.3732    3.2291 C   0  0  0  0  0  0  0  0  0  0  0  0
   -1.6429   -0.1964    2.2839 O   0  0  0  0  0  0  0  0  0  0  0  0
   -3.2168    1.2576    3.0887 N   0  0  0  0  0  0  0  0  0  0  0  0
   -3.8653    1.4064    1.7961 C   0  0  1  0  0  0  0  0  0  0  0  0
   -3.1859    2.4786    0.9025 C   0  0  0  0  0  0  0  0  0  0  0  0
   -1.6868    2.3572    0.7964 C   0  0  0  0  0  0  0  0  0  0  0  0
   -1.0760    1.6177   -0.2302 C   0  0  0  0  0  0  0  0  0  0  0  0
    0.2394    1.4234   -0.3251 N   0  0  0  0  0  0  0  0  0  0  0  0
    1.0141    1.9677    0.6195 C   0  0  0  0  0  0  0  0  0  0  0  0
    0.5302    2.7453    1.6690 C   0  0  0  0  0  0  0  0  0  0  0  0
   -0.8493    2.9450    1.7466 C   0  0  0  0  0  0  0  0  0  0  0  0
    2.4946    1.6739    0.4763 C   0  0  0  0  0  0  0  0  0  0  0  0
    2.9826    2.0952   -0.7118 F   0  0  0  0  0  0  0  0  0  0  0  0
    3.2216    2.2885    1.4482 F   0  0  0  0  0  0  0  0  0  0  0  0
    2.7513    0.3483    0.5693 F   0  0  0  0  0  0  0  0  0  0  0  0
   -4.1027    0.0307    1.1513 C   0  0  0  0  0  0  0  0  0  0  0  0
   -3.8753    0.0160   -0.1848 O   0  0  0  0  0  0  0  0  0  0  0  0
   -4.5438   -0.9213    1.7571 O   0  0  0  0  0  0  0  0  0  0  0  0
    0.7391    1.0432    4.4796 H   0  0  0  0  0  0  0  0  0  0  0  0
    1.4825   -0.5532    4.6742 H   0  0  0  0  0  0  0  0  0  0  0  0
    0.5996   -0.1665    3.1847 H   0  0  0  0  0  0  0  0  0  0  0  0
   -0.4671    0.7038    6.6840 H   0  0  0  0  0  0  0  0  0  0  0  0
   -1.5464   -0.6898    6.9017 H   0  0  0  0  0  0  0  0  0  0  0  0
    0.2130   -0.9259    6.8676 H   0  0  0  0  0  0  0  0  0  0  0  0
   -1.8845   -2.3426    5.0063 H   0  0  0  0  0  0  0  0  0  0  0  0
   -0.1370   -2.6440    5.0050 H   0  0  0  0  0  0  0  0  0  0  0  0
   -0.9556   -2.1773    3.4999 H   0  0  0  0  0  0  0  0  0  0  0  0
   -3.7514    1.4486    3.9252 H   0  0  0  0  0  0  0  0  0  0  0  0
   -4.8793    1.7685    1.9994 H   0  0  0  0  0  0  0  0  0  0  0  0
   -3.6476    2.4472   -0.0871 H   0  0  0  0  0  0  0  0  0  0  0  0
   -3.4298    3.4503    1.3438 H   0  0  0  0  0  0  0  0  0  0  0  0
   -1.6879    1.1512   -0.9981 H   0  0  0  0  0  0  0  0  0  0  0  0
    1.2059    3.1761    2.3992 H   0  0  0  0  0  0  0  0  0  0  0  0
   -1.2710    3.5369    2.5546 H   0  0  0  0  0  0  0  0  0  0  0  0
   -4.0775   -0.8921   -0.4829 H   0  0  0  0  0  0  0  0  0  0  0  0
  1  2  1  0
  1 24  1  0
  1 25  1  0
  1 26  1  0
  2  3  1  0
  2  4  1  0
  2  5  1  0
  3 27  1  0
  3 28  1  0
  3 29  1  0
  4 30  1  0
  4 31  1  0
  4 32  1  0
  5  6  1  0
  6  7  2  0
  6  8  1  0
  8  9  1  0
  8 33  1  0
  9 10  1  0
  9 21  1  0
  9 34  1  1
 10 11  1  0
 10 35  1  0
 10 36  1  0
 11 12  2  0
 11 16  1  0
 12 13  1  0
 12 37  1  0
 13 14  2  0
 14 15  1  0
 14 17  1  0
 15 16  2  0
 15 38  1  0
 16 39  1  0
 17 18  1  0
 17 19  1  0
 17 20  1  0
 21 22  1  0
 21 23  2  0
 22 40  1  0
M  END
>  <group_name>  (1) 
BRI

>  <molecule_index>  (1) 
00647

>  <conformer_index>  (1) 
08

>  <method>  (1) 
b3lyp-d3bj

>  <basis>  (1) 
dzvp

>  <program>  (1) 
psi4

>  <initial_energy>  (1) 
-786786.0188431652 kilocalorie / mole

>  <final_energy>  (1) 
-786881.8951741097 kilocalorie / mole

$$$$
