BRI-01231-00
     RDKit          3D

 32 33  0  0  0  0  0  0  0  0999 V2000
   -4.3272    0.0599   -0.8637 C   0  0  0  0  0  0  0  0  0  0  0  0
   -3.1938    0.0225    0.0036 O   0  0  0  0  0  0  0  0  0  0  0  0
   -2.5565   -1.1644    0.1809 C   0  0  0  0  0  0  0  0  0  0  0  0
   -1.4388   -1.1407    1.0444 C   0  0  0  0  0  0  0  0  0  0  0  0
   -1.0849    0.0324    1.6858 O   0  0  0  0  0  0  0  0  0  0  0  0
   -0.6416    1.0921    0.9307 C   0  0  0  0  0  0  0  0  0  0  0  0
   -0.6581    2.3516    1.5520 C   0  0  0  0  0  0  0  0  0  0  0  0
   -0.2262    3.4546    0.9484 N   0  0  0  0  0  0  0  0  0  0  0  0
    0.2394    3.3467   -0.3025 C   0  0  0  0  0  0  0  0  0  0  0  0
    0.3007    2.1422   -1.0009 C   0  0  0  0  0  0  0  0  0  0  0  0
   -0.1499    0.9813   -0.3683 C   0  0  0  0  0  0  0  0  0  0  0  0
    0.7062    4.6462   -0.9255 C   0  0  0  0  0  0  0  0  0  0  0  0
    1.7134    5.2087   -0.2208 F   0  0  0  0  0  0  0  0  0  0  0  0
    1.1611    4.4532   -2.1921 F   0  0  0  0  0  0  0  0  0  0  0  0
   -0.2921    5.5562   -0.9952 F   0  0  0  0  0  0  0  0  0  0  0  0
   -0.7375   -2.3048    1.3332 C   0  0  0  0  0  0  0  0  0  0  0  0
   -1.1237   -3.5182    0.7602 C   0  0  0  0  0  0  0  0  0  0  0  0
   -2.2036   -3.5526   -0.1256 C   0  0  0  0  0  0  0  0  0  0  0  0
   -2.9231   -2.3765   -0.4113 C   0  0  0  0  0  0  0  0  0  0  0  0
   -2.5756   -4.8780   -0.7205 C   0  0  0  0  0  0  0  0  0  0  0  0
   -3.2386   -4.8491   -1.9160 O   0  0  0  0  0  0  0  0  0  0  0  0
   -2.3170   -5.9393   -0.1996 O   0  0  0  0  0  0  0  0  0  0  0  0
   -4.0537   -0.2316   -1.8848 H   0  0  0  0  0  0  0  0  0  0  0  0
   -5.1299   -0.5881   -0.4931 H   0  0  0  0  0  0  0  0  0  0  0  0
   -4.6654    1.0959   -0.8609 H   0  0  0  0  0  0  0  0  0  0  0  0
   -1.0380    2.4430    2.5674 H   0  0  0  0  0  0  0  0  0  0  0  0
    0.6927    2.1063   -2.0112 H   0  0  0  0  0  0  0  0  0  0  0  0
   -0.1151    0.0218   -0.8740 H   0  0  0  0  0  0  0  0  0  0  0  0
    0.1059   -2.2444    2.0144 H   0  0  0  0  0  0  0  0  0  0  0  0
   -0.5955   -4.4380    0.9862 H   0  0  0  0  0  0  0  0  0  0  0  0
   -3.8094   -2.4135   -1.0359 H   0  0  0  0  0  0  0  0  0  0  0  0
   -3.2061   -3.9545   -2.2938 H   0  0  0  0  0  0  0  0  0  0  0  0
  1  2  1  0
  1 23  1  0
  1 24  1  0
  1 25  1  0
  2  3  1  0
  3  4  2  0
  3 19  1  0
  4  5  1  0
  4 16  1  0
  5  6  1  0
  6  7  2  0
  6 11  1  0
  7  8  1  0
  7 26  1  0
  8  9  2  0
  9 10  1  0
  9 12  1  0
 10 11  2  0
 10 27  1  0
 11 28  1  0
 12 13  1  0
 12 14  1  0
 12 15  1  0
 16 17  2  0
 16 29  1  0
 17 18  1  0
 17 30  1  0
 18 19  2  0
 18 20  1  0
 19 31  1  0
 20 21  1  0
 20 22  2  0
 21 32  1  0
M  END
>  <group_name>  (1) 
BRI

>  <molecule_index>  (1) 
01231

>  <conformer_index>  (1) 
00

>  <method>  (1) 
b3lyp-d3bj

>  <basis>  (1) 
dzvp

>  <program>  (1) 
psi4

>  <initial_energy>  (1) 
-749775.7989261163 kilocalorie / mole

>  <final_energy>  (1) 
-749821.9087810561 kilocalorie / mole

$$$$
