BRI-00593-06
     RDKit          3D

 36 38  0  0  0  0  0  0  0  0999 V2000
    5.3684    4.0988   -0.8743 C   0  0  0  0  0  0  0  0  0  0  0  0
    4.4353    3.8005   -2.0394 C   0  0  0  0  0  0  0  0  0  0  0  0
    3.1922    3.2050   -1.5862 O   0  0  0  0  0  0  0  0  0  0  0  0
    2.2421    4.0752   -1.1400 C   0  0  0  0  0  0  0  0  0  0  0  0
    2.4042    5.2804   -1.1339 O   0  0  0  0  0  0  0  0  0  0  0  0
    1.0217    3.3534   -0.6901 C   0  0  0  0  0  0  0  0  0  0  0  0
   -0.1190    3.9745   -0.1372 C   0  0  0  0  0  0  0  0  0  0  0  0
   -1.2019    3.3110    0.2483 N   0  0  0  0  0  0  0  0  0  0  0  0
   -1.2572    1.9689    0.1142 C   0  0  0  0  0  0  0  0  0  0  0  0
   -0.1595    1.2413   -0.4112 C   0  0  0  0  0  0  0  0  0  0  0  0
    0.9579    1.9471   -0.8064 C   0  0  0  0  0  0  0  0  0  0  0  0
   -2.4107    1.3697    0.5097 N   0  0  0  0  0  0  0  0  0  0  0  0
   -2.5871   -0.0833    0.5721 C   0  0  0  0  0  0  0  0  0  0  0  0
   -4.0468   -0.2614    0.9445 C   0  0  2  0  0  0  0  0  0  0  0  0
   -5.0587    0.4274    0.0558 C   0  0  0  0  0  0  0  0  0  0  0  0
   -4.5969    1.0974    1.3296 C   0  0  2  0  0  0  0  0  0  0  0  0
   -3.4779    2.1126    1.2000 C   0  0  0  0  0  0  0  0  0  0  0  0
   -0.2385    5.4909    0.0954 C   0  0  0  0  0  0  0  0  0  0  0  0
   -1.4152    5.8041    0.6770 F   0  0  0  0  0  0  0  0  0  0  0  0
    0.7315    5.9483    0.9186 F   0  0  0  0  0  0  0  0  0  0  0  0
   -0.1857    6.1808   -1.0651 F   0  0  0  0  0  0  0  0  0  0  0  0
    5.5633    3.1933   -0.2913 H   0  0  0  0  0  0  0  0  0  0  0  0
    6.3241    4.4740   -1.2568 H   0  0  0  0  0  0  0  0  0  0  0  0
    4.9386    4.8595   -0.2186 H   0  0  0  0  0  0  0  0  0  0  0  0
    4.8606    3.0498   -2.7093 H   0  0  0  0  0  0  0  0  0  0  0  0
    4.2080    4.7052   -2.6069 H   0  0  0  0  0  0  0  0  0  0  0  0
   -0.1883    0.1615   -0.5001 H   0  0  0  0  0  0  0  0  0  0  0  0
    1.8126    1.4208   -1.2143 H   0  0  0  0  0  0  0  0  0  0  0  0
   -2.3453   -0.5389   -0.3957 H   0  0  0  0  0  0  0  0  0  0  0  0
   -1.9322   -0.5331    1.3333 H   0  0  0  0  0  0  0  0  0  0  0  0
   -4.3311   -1.1611    1.4802 H   0  0  0  0  0  0  0  0  0  0  0  0
   -4.7168    0.8368   -0.8923 H   0  0  0  0  0  0  0  0  0  0  0  0
   -6.0654    0.0211    0.0406 H   0  0  0  0  0  0  0  0  0  0  0  0
   -5.2932    1.2065    2.1545 H   0  0  0  0  0  0  0  0  0  0  0  0
   -3.1369    2.4566    2.1851 H   0  0  0  0  0  0  0  0  0  0  0  0
   -3.7485    2.9975    0.6190 H   0  0  0  0  0  0  0  0  0  0  0  0
  1  2  1  0
  1 22  1  0
  1 23  1  0
  1 24  1  0
  2  3  1  0
  2 25  1  0
  2 26  1  0
  3  4  1  0
  4  5  2  0
  4  6  1  0
  6  7  2  0
  6 11  1  0
  7  8  1  0
  7 18  1  0
  8  9  2  0
  9 10  1  0
  9 12  1  0
 10 11  2  0
 10 27  1  0
 11 28  1  0
 12 13  1  0
 12 17  1  0
 13 14  1  0
 13 29  1  0
 13 30  1  0
 14 15  1  0
 14 16  1  0
 14 31  1  1
 15 16  1  0
 15 32  1  0
 15 33  1  0
 16 17  1  0
 16 34  1  1
 17 35  1  0
 17 36  1  0
 18 19  1  0
 18 20  1  0
 18 21  1  0
M  END
>  <group_name>  (1) 
BRI

>  <molecule_index>  (1) 
00593

>  <conformer_index>  (1) 
06

>  <method>  (1) 
b3lyp-d3bj

>  <basis>  (1) 
dzvp

>  <program>  (1) 
psi4

>  <initial_energy>  (1) 
-691610.0701707465 kilocalorie / mole

>  <final_energy>  (1) 
-691652.9218030146 kilocalorie / mole

$$$$
