BRI-00593-05
     RDKit          3D

 36 38  0  0  0  0  0  0  0  0999 V2000
    4.4696    5.2743   -2.0430 C   0  0  0  0  0  0  0  0  0  0  0  0
    4.3968    4.7597   -0.6124 C   0  0  0  0  0  0  0  0  0  0  0  0
    3.0718    4.2545   -0.3016 O   0  0  0  0  0  0  0  0  0  0  0  0
    2.7861    3.0049   -0.7083 C   0  0  0  0  0  0  0  0  0  0  0  0
    3.6020    2.2426   -1.2047 O   0  0  0  0  0  0  0  0  0  0  0  0
    1.3783    2.6074   -0.4259 C   0  0  0  0  0  0  0  0  0  0  0  0
    0.2460    3.4365   -0.3254 C   0  0  0  0  0  0  0  0  0  0  0  0
   -0.9678    2.9921   -0.0152 N   0  0  0  0  0  0  0  0  0  0  0  0
   -1.1633    1.6771    0.2127 C   0  0  0  0  0  0  0  0  0  0  0  0
   -0.0988    0.7459    0.0886 C   0  0  0  0  0  0  0  0  0  0  0  0
    1.1517    1.2280   -0.2361 C   0  0  0  0  0  0  0  0  0  0  0  0
   -2.4265    1.3011    0.5473 N   0  0  0  0  0  0  0  0  0  0  0  0
   -2.7837   -0.0586    0.9587 C   0  0  0  0  0  0  0  0  0  0  0  0
   -4.2922   -0.0123    1.1119 C   0  0  2  0  0  0  0  0  0  0  0  0
   -5.0772    0.4769   -0.0849 C   0  0  0  0  0  0  0  0  0  0  0  0
   -4.7235    1.4382    1.0266 C   0  0  2  0  0  0  0  0  0  0  0  0
   -3.4830    2.2869    0.8251 C   0  0  0  0  0  0  0  0  0  0  0  0
    0.2675    4.9423   -0.6223 C   0  0  0  0  0  0  0  0  0  0  0  0
    0.9889    5.2222   -1.7377 F   0  0  0  0  0  0  0  0  0  0  0  0
   -0.9729    5.4199   -0.8392 F   0  0  0  0  0  0  0  0  0  0  0  0
    0.7886    5.6571    0.4028 F   0  0  0  0  0  0  0  0  0  0  0  0
    5.4550    5.7188   -2.2211 H   0  0  0  0  0  0  0  0  0  0  0  0
    3.7067    6.0376   -2.2183 H   0  0  0  0  0  0  0  0  0  0  0  0
    4.3268    4.4594   -2.7569 H   0  0  0  0  0  0  0  0  0  0  0  0
    4.5466    5.5640    0.1102 H   0  0  0  0  0  0  0  0  0  0  0  0
    5.1271    3.9677   -0.4332 H   0  0  0  0  0  0  0  0  0  0  0  0
   -0.2560   -0.3145    0.2479 H   0  0  0  0  0  0  0  0  0  0  0  0
    1.9955    0.5534   -0.3429 H   0  0  0  0  0  0  0  0  0  0  0  0
   -2.3021   -0.3285    1.9106 H   0  0  0  0  0  0  0  0  0  0  0  0
   -2.4651   -0.7836    0.2001 H   0  0  0  0  0  0  0  0  0  0  0  0
   -4.7561   -0.7020    1.8094 H   0  0  0  0  0  0  0  0  0  0  0  0
   -6.1131    0.1614   -0.1632 H   0  0  0  0  0  0  0  0  0  0  0  0
   -4.5571    0.5779   -1.0350 H   0  0  0  0  0  0  0  0  0  0  0  0
   -5.5113    1.8268    1.6635 H   0  0  0  0  0  0  0  0  0  0  0  0
   -3.2477    2.8660    1.7278 H   0  0  0  0  0  0  0  0  0  0  0  0
   -3.5595    2.9914   -0.0067 H   0  0  0  0  0  0  0  0  0  0  0  0
  1  2  1  0
  1 22  1  0
  1 23  1  0
  1 24  1  0
  2  3  1  0
  2 25  1  0
  2 26  1  0
  3  4  1  0
  4  5  2  0
  4  6  1  0
  6  7  2  0
  6 11  1  0
  7  8  1  0
  7 18  1  0
  8  9  2  0
  9 10  1  0
  9 12  1  0
 10 11  2  0
 10 27  1  0
 11 28  1  0
 12 13  1  0
 12 17  1  0
 13 14  1  0
 13 29  1  0
 13 30  1  0
 14 15  1  0
 14 16  1  0
 14 31  1  1
 15 16  1  0
 15 32  1  0
 15 33  1  0
 16 17  1  0
 16 34  1  1
 17 35  1  0
 17 36  1  0
 18 19  1  0
 18 20  1  0
 18 21  1  0
M  END
>  <group_name>  (1) 
BRI

>  <molecule_index>  (1) 
00593

>  <conformer_index>  (1) 
05

>  <method>  (1) 
b3lyp-d3bj

>  <basis>  (1) 
dzvp

>  <program>  (1) 
psi4

>  <initial_energy>  (1) 
-691615.1283937725 kilocalorie / mole

>  <final_energy>  (1) 
-691654.1962198443 kilocalorie / mole

$$$$
