BRI-00647-03
     RDKit          3D

 40 40  0  0  0  0  0  0  0  0999 V2000
   -1.6483   -1.1288    5.9249 C   0  0  0  0  0  0  0  0  0  0  0  0
   -0.7122   -0.2265    5.1203 C   0  0  0  0  0  0  0  0  0  0  0  0
    0.2712   -1.0144    4.2535 C   0  0  0  0  0  0  0  0  0  0  0  0
    0.0283    0.7529    6.0303 C   0  0  0  0  0  0  0  0  0  0  0  0
   -1.5136    0.6912    4.2632 O   0  0  0  0  0  0  0  0  0  0  0  0
   -2.3283    0.2296    3.3114 C   0  0  0  0  0  0  0  0  0  0  0  0
   -2.5035   -0.9593    3.0107 O   0  0  0  0  0  0  0  0  0  0  0  0
   -2.9798    1.2557    2.6888 N   0  0  0  0  0  0  0  0  0  0  0  0
   -3.6061    1.1402    1.3669 C   0  0  1  0  0  0  0  0  0  0  0  0
   -2.6758    0.5303    0.2800 C   0  0  0  0  0  0  0  0  0  0  0  0
   -1.3146    1.1754    0.2960 C   0  0  0  0  0  0  0  0  0  0  0  0
   -0.2259    0.5226    0.8971 C   0  0  0  0  0  0  0  0  0  0  0  0
    0.9864    1.0632    1.0365 N   0  0  0  0  0  0  0  0  0  0  0  0
    1.1697    2.2973    0.5580 C   0  0  0  0  0  0  0  0  0  0  0  0
    0.1754    3.0380   -0.0824 C   0  0  0  0  0  0  0  0  0  0  0  0
   -1.0895    2.4599   -0.2083 C   0  0  0  0  0  0  0  0  0  0  0  0
    2.5636    2.8601    0.7670 C   0  0  0  0  0  0  0  0  0  0  0  0
    2.8680    2.9465    2.0829 F   0  0  0  0  0  0  0  0  0  0  0  0
    3.5076    2.0915    0.1833 F   0  0  0  0  0  0  0  0  0  0  0  0
    2.6787    4.1083    0.2457 F   0  0  0  0  0  0  0  0  0  0  0  0
   -4.9565    0.3940    1.3642 C   0  0  0  0  0  0  0  0  0  0  0  0
   -4.9916   -0.8053    1.9625 O   0  0  0  0  0  0  0  0  0  0  0  0
   -5.9190    0.8629    0.7935 O   0  0  0  0  0  0  0  0  0  0  0  0
   -2.3812   -0.5288    6.4733 H   0  0  0  0  0  0  0  0  0  0  0  0
   -1.0598   -1.6948    6.6538 H   0  0  0  0  0  0  0  0  0  0  0  0
   -2.1751   -1.8347    5.2821 H   0  0  0  0  0  0  0  0  0  0  0  0
    0.8685   -0.3389    3.6342 H   0  0  0  0  0  0  0  0  0  0  0  0
   -0.2471   -1.7290    3.6129 H   0  0  0  0  0  0  0  0  0  0  0  0
    0.9533   -1.5690    4.9057 H   0  0  0  0  0  0  0  0  0  0  0  0
   -0.6785    1.3515    6.6121 H   0  0  0  0  0  0  0  0  0  0  0  0
    0.6565    1.4267    5.4409 H   0  0  0  0  0  0  0  0  0  0  0  0
    0.6685    0.2007    6.7240 H   0  0  0  0  0  0  0  0  0  0  0  0
   -2.7016    2.1828    2.9836 H   0  0  0  0  0  0  0  0  0  0  0  0
   -3.8530    2.1604    1.0739 H   0  0  0  0  0  0  0  0  0  0  0  0
   -2.5761   -0.5452    0.4375 H   0  0  0  0  0  0  0  0  0  0  0  0
   -3.1696    0.6780   -0.6855 H   0  0  0  0  0  0  0  0  0  0  0  0
   -0.3494   -0.4848    1.2888 H   0  0  0  0  0  0  0  0  0  0  0  0
    0.3835    4.0308   -0.4653 H   0  0  0  0  0  0  0  0  0  0  0  0
   -1.8929    3.0076   -0.6965 H   0  0  0  0  0  0  0  0  0  0  0  0
   -4.1050   -1.0277    2.3514 H   0  0  0  0  0  0  0  0  0  0  0  0
  1  2  1  0
  1 24  1  0
  1 25  1  0
  1 26  1  0
  2  3  1  0
  2  4  1  0
  2  5  1  0
  3 27  1  0
  3 28  1  0
  3 29  1  0
  4 30  1  0
  4 31  1  0
  4 32  1  0
  5  6  1  0
  6  7  2  0
  6  8  1  0
  8  9  1  0
  8 33  1  0
  9 10  1  0
  9 21  1  0
  9 34  1  6
 10 11  1  0
 10 35  1  0
 10 36  1  0
 11 12  2  0
 11 16  1  0
 12 13  1  0
 12 37  1  0
 13 14  2  0
 14 15  1  0
 14 17  1  0
 15 16  2  0
 15 38  1  0
 16 39  1  0
 17 18  1  0
 17 19  1  0
 17 20  1  0
 21 22  1  0
 21 23  2  0
 22 40  1  0
M  END
>  <group_name>  (1) 
BRI

>  <molecule_index>  (1) 
00647

>  <conformer_index>  (1) 
03

>  <method>  (1) 
b3lyp-d3bj

>  <basis>  (1) 
dzvp

>  <program>  (1) 
psi4

>  <initial_energy>  (1) 
-786804.3342472371 kilocalorie / mole

>  <final_energy>  (1) 
-786885.9296065684 kilocalorie / mole

$$$$
