BRI-01456-01
     RDKit          3D

 42 42  0  0  0  0  0  0  0  0999 V2000
   -1.2498    6.0169    2.0958 C   0  0  0  0  0  0  0  0  0  0  0  0
   -1.4762    4.5009    2.1873 C   0  0  0  0  0  0  0  0  0  0  0  0
   -1.8658    4.0987    3.6170 C   0  0  0  0  0  0  0  0  0  0  0  0
   -2.5512    4.0097    1.2015 C   0  0  0  0  0  0  0  0  0  0  0  0
   -2.2397    4.2500   -0.2900 C   0  0  2  0  0  0  0  0  0  0  0  0
   -3.3048    3.6398   -1.2306 C   0  0  0  0  0  0  0  0  0  0  0  0
   -4.6855    4.2891   -1.1184 C   0  0  2  0  0  0  0  0  0  0  0  0
   -5.5683    3.9061    0.0698 C   0  0  0  0  0  0  0  0  0  0  0  0
   -5.8198    2.5718    0.2191 N   0  0  0  0  0  0  0  0  0  0  0  0
   -6.0001    4.7627    0.8371 O   0  0  0  0  0  0  0  0  0  0  0  0
   -5.6534    4.0044   -2.7102 S   0  0  0  0  0  0  0  0  0  0  0  0
   -5.5805    2.2973   -2.7155 O   0  0  0  0  0  0  0  0  0  0  0  0
   -4.7411    4.4744   -3.7951 O   0  0  0  0  0  0  0  0  0  0  0  0
   -0.8925    3.6611   -0.6578 C   0  0  0  0  0  0  0  0  0  0  0  0
   -0.7706    2.3319   -0.5334 N   0  0  0  0  0  0  0  0  0  0  0  0
    0.4000    1.7675   -0.8358 C   0  0  0  0  0  0  0  0  0  0  0  0
    1.5208    2.4704   -1.2757 C   0  0  0  0  0  0  0  0  0  0  0  0
    1.3926    3.8558   -1.4119 C   0  0  0  0  0  0  0  0  0  0  0  0
    0.1742    4.4571   -1.1032 C   0  0  0  0  0  0  0  0  0  0  0  0
    0.4304    0.2587   -0.6690 C   0  0  0  0  0  0  0  0  0  0  0  0
    0.1532   -0.1092    0.6016 F   0  0  0  0  0  0  0  0  0  0  0  0
   -0.4785   -0.3457   -1.4700 F   0  0  0  0  0  0  0  0  0  0  0  0
    1.6463   -0.2555   -0.9818 F   0  0  0  0  0  0  0  0  0  0  0  0
   -2.1849    6.5617    2.2745 H   0  0  0  0  0  0  0  0  0  0  0  0
   -0.5220    6.3486    2.8442 H   0  0  0  0  0  0  0  0  0  0  0  0
   -0.8685    6.3211    1.1155 H   0  0  0  0  0  0  0  0  0  0  0  0
   -0.5301    3.9984    1.9470 H   0  0  0  0  0  0  0  0  0  0  0  0
   -2.8082    4.5747    3.9137 H   0  0  0  0  0  0  0  0  0  0  0  0
   -1.0971    4.4017    4.3364 H   0  0  0  0  0  0  0  0  0  0  0  0
   -1.9972    3.0144    3.7012 H   0  0  0  0  0  0  0  0  0  0  0  0
   -2.7012    2.9340    1.3445 H   0  0  0  0  0  0  0  0  0  0  0  0
   -3.4965    4.5021    1.4511 H   0  0  0  0  0  0  0  0  0  0  0  0
   -2.1997    5.3274   -0.4828 H   0  0  0  0  0  0  0  0  0  0  0  0
   -2.9571    3.7796   -2.2616 H   0  0  0  0  0  0  0  0  0  0  0  0
   -3.3611    2.5657   -1.0388 H   0  0  0  0  0  0  0  0  0  0  0  0
   -4.6062    5.3801   -1.0981 H   0  0  0  0  0  0  0  0  0  0  0  0
   -5.6865    1.9409   -0.5643 H   0  0  0  0  0  0  0  0  0  0  0  0
   -6.5067    2.3197    0.9199 H   0  0  0  0  0  0  0  0  0  0  0  0
   -4.7300    2.0540   -3.1376 H   0  0  0  0  0  0  0  0  0  0  0  0
    2.4484    1.9580   -1.5036 H   0  0  0  0  0  0  0  0  0  0  0  0
    2.2329    4.4536   -1.7543 H   0  0  0  0  0  0  0  0  0  0  0  0
    0.0449    5.5309   -1.2015 H   0  0  0  0  0  0  0  0  0  0  0  0
  1  2  1  0
  1 24  1  0
  1 25  1  0
  1 26  1  0
  2  3  1  0
  2  4  1  0
  2 27  1  0
  3 28  1  0
  3 29  1  0
  3 30  1  0
  4  5  1  0
  4 31  1  0
  4 32  1  0
  5  6  1  0
  5 14  1  0
  5 33  1  1
  6  7  1  0
  6 34  1  0
  6 35  1  0
  7  8  1  0
  7 11  1  0
  7 36  1  1
  8  9  1  0
  8 10  2  0
  9 37  1  0
  9 38  1  0
 11 12  1  6
 11 13  2  0
 12 39  1  0
 14 15  2  0
 14 19  1  0
 15 16  1  0
 16 17  2  0
 16 20  1  0
 17 18  1  0
 17 40  1  0
 18 19  2  0
 18 41  1  0
 19 42  1  0
 20 21  1  0
 20 22  1  0
 20 23  1  0
M  END
>  <group_name>  (1) 
BRI

>  <molecule_index>  (1) 
01456

>  <conformer_index>  (1) 
01

>  <method>  (1) 
b3lyp-d3bj

>  <basis>  (1) 
dzvp

>  <program>  (1) 
psi4

>  <initial_energy>  (1) 
-990145.2336539051 kilocalorie / mole

>  <final_energy>  (1) 
-990240.0482008463 kilocalorie / mole

$$$$
