BRI-00638-03
     RDKit          3D

 45 45  0  0  0  0  0  0  0  0999 V2000
   -3.6733    7.7353   -0.5844 C   0  0  0  0  0  0  0  0  0  0  0  0
   -2.9419    7.4756    0.7321 C   0  0  0  0  0  0  0  0  0  0  0  0
   -1.9265    6.4756    0.6406 O   0  0  0  0  0  0  0  0  0  0  0  0
   -2.4187    5.1557    0.4776 C   0  0  0  0  0  0  0  0  0  0  0  0
   -1.2233    4.2150    0.6025 C   0  0  0  0  0  0  0  0  0  0  0  0
   -1.6896    2.8238    0.4900 N   0  0  0  0  0  0  0  0  0  0  0  0
   -0.9746    1.7519   -0.5599 S   0  0  0  0  0  0  0  0  0  0  0  0
   -0.4898    2.5214   -1.7087 O   0  0  0  0  0  0  0  0  0  0  0  0
   -1.9220    0.6408   -0.7323 O   0  0  0  0  0  0  0  0  0  0  0  0
    0.5218    0.9981    0.2748 C   0  0  0  0  0  0  0  0  0  0  0  0
    1.2681    0.1921   -0.7974 C   0  0  0  0  0  0  0  0  0  0  0  0
    1.4325    2.1321    0.7781 C   0  0  0  0  0  0  0  0  0  0  0  0
   -0.0231    0.2573    1.5161 C   0  0  0  0  0  0  0  0  0  0  0  0
   -0.4805    0.9218    2.4483 O   0  0  0  0  0  0  0  0  0  0  0  0
    0.1245   -1.1010    1.6773 N   0  0  0  0  0  0  0  0  0  0  0  0
    0.1466   -2.1891    0.7697 C   0  0  0  0  0  0  0  0  0  0  0  0
   -0.7024   -2.2416   -0.3477 C   0  0  0  0  0  0  0  0  0  0  0  0
   -0.6376   -3.3694   -1.1595 C   0  0  0  0  0  0  0  0  0  0  0  0
    0.2280   -4.4163   -0.8211 C   0  0  0  0  0  0  0  0  0  0  0  0
    0.9845   -4.2707    0.3392 C   0  0  0  0  0  0  0  0  0  0  0  0
    0.9588   -3.1859    1.1196 N   0  0  0  0  0  0  0  0  0  0  0  0
    1.9244   -5.3648    0.8138 C   0  0  0  0  0  0  0  0  0  0  0  0
    1.9079   -6.4304   -0.0251 F   0  0  0  0  0  0  0  0  0  0  0  0
    3.2011   -4.9274    0.8831 F   0  0  0  0  0  0  0  0  0  0  0  0
    1.5821   -5.8130    2.0418 F   0  0  0  0  0  0  0  0  0  0  0  0
   -2.9581    7.9685   -1.3794 H   0  0  0  0  0  0  0  0  0  0  0  0
   -4.2721    6.8755   -0.8997 H   0  0  0  0  0  0  0  0  0  0  0  0
   -4.3520    8.5879   -0.4690 H   0  0  0  0  0  0  0  0  0  0  0  0
   -2.4185    8.3798    1.0559 H   0  0  0  0  0  0  0  0  0  0  0  0
   -3.6590    7.2024    1.5220 H   0  0  0  0  0  0  0  0  0  0  0  0
   -3.1692    4.9237    1.2507 H   0  0  0  0  0  0  0  0  0  0  0  0
   -2.8883    5.0073   -0.5034 H   0  0  0  0  0  0  0  0  0  0  0  0
   -0.7132    4.3792    1.5570 H   0  0  0  0  0  0  0  0  0  0  0  0
   -0.5208    4.4250   -0.2049 H   0  0  0  0  0  0  0  0  0  0  0  0
   -1.9134    2.3640    1.3714 H   0  0  0  0  0  0  0  0  0  0  0  0
    0.6200   -0.4514   -1.3883 H   0  0  0  0  0  0  0  0  0  0  0  0
    1.7587    0.8874   -1.4812 H   0  0  0  0  0  0  0  0  0  0  0  0
    2.0360   -0.4263   -0.3237 H   0  0  0  0  0  0  0  0  0  0  0  0
    2.3577    1.6950    1.1673 H   0  0  0  0  0  0  0  0  0  0  0  0
    1.6898    2.7947   -0.0514 H   0  0  0  0  0  0  0  0  0  0  0  0
    0.9644    2.7024    1.5785 H   0  0  0  0  0  0  0  0  0  0  0  0
    0.0144   -1.3769    2.6503 H   0  0  0  0  0  0  0  0  0  0  0  0
   -1.3856   -1.4253   -0.5556 H   0  0  0  0  0  0  0  0  0  0  0  0
   -1.2730   -3.4420   -2.0375 H   0  0  0  0  0  0  0  0  0  0  0  0
    0.2986   -5.3149   -1.4226 H   0  0  0  0  0  0  0  0  0  0  0  0
  1  2  1  0
  1 26  1  0
  1 27  1  0
  1 28  1  0
  2  3  1  0
  2 29  1  0
  2 30  1  0
  3  4  1  0
  4  5  1  0
  4 31  1  0
  4 32  1  0
  5  6  1  0
  5 33  1  0
  5 34  1  0
  6  7  1  0
  6 35  1  0
  7  8  2  0
  7  9  2  0
  7 10  1  0
 10 11  1  0
 10 12  1  0
 10 13  1  0
 11 36  1  0
 11 37  1  0
 11 38  1  0
 12 39  1  0
 12 40  1  0
 12 41  1  0
 13 14  2  0
 13 15  1  0
 15 16  1  0
 15 42  1  0
 16 17  2  0
 16 21  1  0
 17 18  1  0
 17 43  1  0
 18 19  2  0
 18 44  1  0
 19 20  1  0
 19 45  1  0
 20 21  2  0
 20 22  1  0
 22 23  1  0
 22 24  1  0
 22 25  1  0
M  END
>  <group_name>  (1) 
BRI

>  <molecule_index>  (1) 
00638

>  <conformer_index>  (1) 
03

>  <method>  (1) 
b3lyp-d3bj

>  <basis>  (1) 
dzvp

>  <program>  (1) 
psi4

>  <initial_energy>  (1) 
-1072041.2953499067 kilocalorie / mole

>  <final_energy>  (1) 
-1072169.1773728677 kilocalorie / mole

$$$$
