BRI-00649-02
     RDKit          3D

 53 55  0  0  0  0  0  0  0  0999 V2000
    6.8586   -1.8060   -4.8570 C   0  0  0  0  0  0  0  0  0  0  0  0
    6.1280   -2.4636   -3.6842 C   0  0  0  0  0  0  0  0  0  0  0  0
    5.9255   -1.5898   -2.5160 N   0  0  0  0  0  0  0  0  0  0  0  0
    4.6365   -0.8915   -2.3495 C   0  0  1  0  0  0  0  0  0  0  0  0
    4.8146   -0.1272   -1.5922 H   0  0  0  0  0  0  0  0  0  0  0  0
    4.1546   -0.1954   -3.6207 C   0  0  0  0  0  0  0  0  0  0  0  0
    3.5904   -1.8785   -1.7770 C   0  0  0  0  0  0  0  0  0  0  0  0
    2.3570   -1.2606   -1.3338 N   0  0  0  0  0  0  0  0  0  0  0  0
    2.2527   -0.4561   -0.2189 C   0  0  0  0  0  0  0  0  0  0  0  0
    3.2980   -0.3245    0.7290 C   0  0  0  0  0  0  0  0  0  0  0  0
    3.0744    0.4706    1.8442 C   0  0  0  0  0  0  0  0  0  0  0  0
    1.8427    1.1071    1.9833 C   0  0  0  0  0  0  0  0  0  0  0  0
    1.6042    1.8866    3.0651 F   0  0  0  0  0  0  0  0  0  0  0  0
    0.8756    0.9406    0.9972 C   0  0  0  0  0  0  0  0  0  0  0  0
    1.0773    0.1793   -0.0793 N   0  0  0  0  0  0  0  0  0  0  0  0
   -0.4707    1.6365    1.1147 C   0  0  0  0  0  0  0  0  0  0  0  0
   -1.1270    1.2469    2.2380 F   0  0  0  0  0  0  0  0  0  0  0  0
   -0.3230    2.9842    1.1907 F   0  0  0  0  0  0  0  0  0  0  0  0
   -1.2711    1.3769    0.0682 F   0  0  0  0  0  0  0  0  0  0  0  0
    6.6764   -1.7379   -1.3824 C   0  0  0  0  0  0  0  0  0  0  0  0
    6.3501   -1.2657   -0.2873 O   0  0  0  0  0  0  0  0  0  0  0  0
    8.0086   -2.4374   -1.5120 C   0  0  0  0  0  0  0  0  0  0  0  0
    8.2240   -3.6903   -0.9051 C   0  0  0  0  0  0  0  0  0  0  0  0
    9.5175   -4.2217   -0.9643 C   0  0  0  0  0  0  0  0  0  0  0  0
    9.7578   -5.4517   -0.4587 F   0  0  0  0  0  0  0  0  0  0  0  0
   10.5790   -3.5550   -1.5680 C   0  0  0  0  0  0  0  0  0  0  0  0
   10.3481   -2.3019   -2.1363 C   0  0  0  0  0  0  0  0  0  0  0  0
    9.0652   -1.7488   -2.1133 C   0  0  0  0  0  0  0  0  0  0  0  0
    7.1121   -4.4199   -0.2411 C   0  0  0  0  0  0  0  0  0  0  0  0
    5.9313   -4.4279   -0.8856 N   0  0  0  0  0  0  0  0  0  0  0  0
    4.9202   -5.0589   -0.2774 C   0  0  0  0  0  0  0  0  0  0  0  0
    5.0698   -5.6843    0.9594 C   0  0  0  0  0  0  0  0  0  0  0  0
    6.3403   -5.6179    1.5361 C   0  0  0  0  0  0  0  0  0  0  0  0
    7.3635   -4.9916    0.9470 N   0  0  0  0  0  0  0  0  0  0  0  0
    6.9312   -2.5158   -5.6885 H   0  0  0  0  0  0  0  0  0  0  0  0
    6.3369   -0.9155   -5.2151 H   0  0  0  0  0  0  0  0  0  0  0  0
    7.8733   -1.5182   -4.5719 H   0  0  0  0  0  0  0  0  0  0  0  0
    5.1450   -2.8170   -4.0097 H   0  0  0  0  0  0  0  0  0  0  0  0
    6.6649   -3.3537   -3.3556 H   0  0  0  0  0  0  0  0  0  0  0  0
    4.8916    0.5306   -3.9740 H   0  0  0  0  0  0  0  0  0  0  0  0
    3.2316    0.3485   -3.3997 H   0  0  0  0  0  0  0  0  0  0  0  0
    3.9418   -0.8981   -4.4330 H   0  0  0  0  0  0  0  0  0  0  0  0
    4.0475   -2.4154   -0.9437 H   0  0  0  0  0  0  0  0  0  0  0  0
    3.3323   -2.6273   -2.5326 H   0  0  0  0  0  0  0  0  0  0  0  0
    1.5980   -1.1463   -1.9928 H   0  0  0  0  0  0  0  0  0  0  0  0
    4.2613   -0.8027    0.5861 H   0  0  0  0  0  0  0  0  0  0  0  0
    3.8424    0.6099    2.5993 H   0  0  0  0  0  0  0  0  0  0  0  0
   11.5577   -4.0241   -1.5853 H   0  0  0  0  0  0  0  0  0  0  0  0
   11.1677   -1.7588   -2.5983 H   0  0  0  0  0  0  0  0  0  0  0  0
    8.8874   -0.7657   -2.5385 H   0  0  0  0  0  0  0  0  0  0  0  0
    3.9639   -5.0608   -0.7986 H   0  0  0  0  0  0  0  0  0  0  0  0
    4.2441   -6.1921    1.4476 H   0  0  0  0  0  0  0  0  0  0  0  0
    6.5454   -6.0757    2.5027 H   0  0  0  0  0  0  0  0  0  0  0  0
  1  2  1  0
  1 35  1  0
  1 36  1  0
  1 37  1  0
  2  3  1  0
  2 38  1  0
  2 39  1  0
  3  4  1  0
  3 20  1  0
  4  5  1  1
  4  6  1  0
  4  7  1  0
  6 40  1  0
  6 41  1  0
  6 42  1  0
  7  8  1  0
  7 43  1  0
  7 44  1  0
  8  9  1  0
  8 45  1  0
  9 10  2  0
  9 15  1  0
 10 11  1  0
 10 46  1  0
 11 12  2  0
 11 47  1  0
 12 13  1  0
 12 14  1  0
 14 15  2  0
 14 16  1  0
 16 17  1  0
 16 18  1  0
 16 19  1  0
 20 21  2  0
 20 22  1  0
 22 23  1  0
 22 28  2  0
 23 24  2  0
 23 29  1  0
 24 25  1  0
 24 26  1  0
 26 27  2  0
 26 48  1  0
 27 28  1  0
 27 49  1  0
 28 50  1  0
 29 30  2  0
 29 34  1  0
 30 31  1  0
 31 32  2  0
 31 51  1  0
 32 33  1  0
 32 52  1  0
 33 34  2  0
 33 53  1  0
M  END
>  <group_name>  (1) 
BRI

>  <molecule_index>  (1) 
00649

>  <conformer_index>  (1) 
02

>  <method>  (1) 
b3lyp-d3bj

>  <basis>  (1) 
dzvp

>  <program>  (1) 
psi4

>  <initial_energy>  (1) 
-1066062.802260464 kilocalorie / mole

>  <final_energy>  (1) 
-1066103.8645173232 kilocalorie / mole

$$$$
