BRI-01231-04
     RDKit          3D

 32 33  0  0  0  0  0  0  0  0999 V2000
   -3.7126   -0.2387   -1.9926 C   0  0  0  0  0  0  0  0  0  0  0  0
   -3.0605   -0.0098   -0.7424 O   0  0  0  0  0  0  0  0  0  0  0  0
   -2.6132   -1.0914   -0.0488 C   0  0  0  0  0  0  0  0  0  0  0  0
   -1.9141   -0.8117    1.1465 C   0  0  0  0  0  0  0  0  0  0  0  0
   -1.7738    0.4959    1.5814 O   0  0  0  0  0  0  0  0  0  0  0  0
   -1.0446    1.3787    0.8220 C   0  0  0  0  0  0  0  0  0  0  0  0
   -0.1341    0.9851   -0.1716 C   0  0  0  0  0  0  0  0  0  0  0  0
    0.5810    1.8637   -0.8728 N   0  0  0  0  0  0  0  0  0  0  0  0
    0.4234    3.1640   -0.6081 C   0  0  0  0  0  0  0  0  0  0  0  0
   -0.4475    3.6533    0.3674 C   0  0  0  0  0  0  0  0  0  0  0  0
   -1.2002    2.7363    1.0991 C   0  0  0  0  0  0  0  0  0  0  0  0
    1.2696    4.0945   -1.4523 C   0  0  0  0  0  0  0  0  0  0  0  0
    2.5909    3.8469   -1.3068 F   0  0  0  0  0  0  0  0  0  0  0  0
    0.9831    3.9768   -2.7699 F   0  0  0  0  0  0  0  0  0  0  0  0
    1.0655    5.3950   -1.1138 F   0  0  0  0  0  0  0  0  0  0  0  0
   -1.4250   -1.8375    1.9470 C   0  0  0  0  0  0  0  0  0  0  0  0
   -1.6085   -3.1682    1.5683 C   0  0  0  0  0  0  0  0  0  0  0  0
   -2.2828   -3.4571    0.3778 C   0  0  0  0  0  0  0  0  0  0  0  0
   -2.7852   -2.4226   -0.4310 C   0  0  0  0  0  0  0  0  0  0  0  0
   -2.4516   -4.8837   -0.0028 C   0  0  0  0  0  0  0  0  0  0  0  0
   -3.1249   -5.0490   -1.1771 O   0  0  0  0  0  0  0  0  0  0  0  0
   -2.0431   -5.8322    0.6429 O   0  0  0  0  0  0  0  0  0  0  0  0
   -4.6335   -0.8176   -1.8569 H   0  0  0  0  0  0  0  0  0  0  0  0
   -3.0488   -0.7558   -2.6946 H   0  0  0  0  0  0  0  0  0  0  0  0
   -3.9564    0.7496   -2.3821 H   0  0  0  0  0  0  0  0  0  0  0  0
    0.0169   -0.0666   -0.4018 H   0  0  0  0  0  0  0  0  0  0  0  0
   -0.5382    4.7186    0.5475 H   0  0  0  0  0  0  0  0  0  0  0  0
   -1.9000    3.0519    1.8669 H   0  0  0  0  0  0  0  0  0  0  0  0
   -0.9006   -1.5753    2.8609 H   0  0  0  0  0  0  0  0  0  0  0  0
   -1.2313   -3.9832    2.1762 H   0  0  0  0  0  0  0  0  0  0  0  0
   -3.3099   -2.6756   -1.3430 H   0  0  0  0  0  0  0  0  0  0  0  0
   -3.1721   -6.0130   -1.3232 H   0  0  0  0  0  0  0  0  0  0  0  0
  1  2  1  0
  1 23  1  0
  1 24  1  0
  1 25  1  0
  2  3  1  0
  3  4  2  0
  3 19  1  0
  4  5  1  0
  4 16  1  0
  5  6  1  0
  6  7  2  0
  6 11  1  0
  7  8  1  0
  7 26  1  0
  8  9  2  0
  9 10  1  0
  9 12  1  0
 10 11  2  0
 10 27  1  0
 11 28  1  0
 12 13  1  0
 12 14  1  0
 12 15  1  0
 16 17  2  0
 16 29  1  0
 17 18  1  0
 17 30  1  0
 18 19  2  0
 18 20  1  0
 19 31  1  0
 20 21  1  0
 20 22  2  0
 21 32  1  0
M  END
>  <group_name>  (1) 
BRI

>  <molecule_index>  (1) 
01231

>  <conformer_index>  (1) 
04

>  <method>  (1) 
b3lyp-d3bj

>  <basis>  (1) 
dzvp

>  <program>  (1) 
psi4

>  <initial_energy>  (1) 
-749784.0328823852 kilocalorie / mole

>  <final_energy>  (1) 
-749830.2156636053 kilocalorie / mole

$$$$
