BRI-00739-04
     RDKit          3D

 34 35  0  0  0  0  0  0  0  0999 V2000
    8.3639    1.5731    1.5405 C   0  0  0  0  0  0  0  0  0  0  0  0
    7.2419    0.6899    1.2419 N   0  0  0  0  0  0  0  0  0  0  0  0
    7.4325   -0.4750    0.5938 C   0  0  0  0  0  0  0  0  0  0  0  0
    8.5249   -0.8769    0.1950 O   0  0  0  0  0  0  0  0  0  0  0  0
    6.1733   -1.3683    0.3731 C   0  0  2  0  0  0  0  0  0  0  0  0
    6.3245   -2.1595   -0.8920 C   0  0  0  0  0  0  0  0  0  0  0  0
    5.3632   -2.5178   -1.6635 N   0  0  0  0  0  0  0  0  0  0  0  0
    4.0459   -2.1318   -1.3458 C   0  0  0  0  0  0  0  0  0  0  0  0
    3.0544   -2.6684   -2.3362 C   0  0  0  0  0  0  0  0  0  0  0  0
    3.7211   -1.3183   -0.2901 C   0  0  0  0  0  0  0  0  0  0  0  0
    4.7874   -0.7651    0.5560 C   0  0  0  0  0  0  0  0  0  0  0  0
    4.5646    0.0973    1.4116 O   0  0  0  0  0  0  0  0  0  0  0  0
    2.3272   -0.9125    0.0212 C   0  0  0  0  0  0  0  0  0  0  0  0
    1.9529    0.4392    0.0665 C   0  0  0  0  0  0  0  0  0  0  0  0
    0.6300    0.7503    0.3692 C   0  0  0  0  0  0  0  0  0  0  0  0
   -0.3204   -0.1527    0.6364 N   0  0  0  0  0  0  0  0  0  0  0  0
    0.0430   -1.4374    0.6073 C   0  0  0  0  0  0  0  0  0  0  0  0
    1.3418   -1.8631    0.3100 C   0  0  0  0  0  0  0  0  0  0  0  0
    0.1602    2.1941    0.4199 C   0  0  0  0  0  0  0  0  0  0  0  0
    1.1688    3.0574    0.1348 F   0  0  0  0  0  0  0  0  0  0  0  0
   -0.8280    2.4255   -0.4735 F   0  0  0  0  0  0  0  0  0  0  0  0
   -0.3140    2.5205    1.6419 F   0  0  0  0  0  0  0  0  0  0  0  0
    8.9243    1.7946    0.6289 H   0  0  0  0  0  0  0  0  0  0  0  0
    9.0495    1.1123    2.2592 H   0  0  0  0  0  0  0  0  0  0  0  0
    7.9722    2.5018    1.9589 H   0  0  0  0  0  0  0  0  0  0  0  0
    6.3101    0.8824    1.6016 H   0  0  0  0  0  0  0  0  0  0  0  0
    6.2479   -2.1146    1.1838 H   0  0  0  0  0  0  0  0  0  0  0  0
    7.3396   -2.4502   -1.1583 H   0  0  0  0  0  0  0  0  0  0  0  0
    2.0611   -2.2343   -2.2328 H   0  0  0  0  0  0  0  0  0  0  0  0
    3.4363   -2.4855   -3.3452 H   0  0  0  0  0  0  0  0  0  0  0  0
    2.9821   -3.7573   -2.2272 H   0  0  0  0  0  0  0  0  0  0  0  0
    2.6725    1.2235   -0.1305 H   0  0  0  0  0  0  0  0  0  0  0  0
   -0.7357   -2.1633    0.8337 H   0  0  0  0  0  0  0  0  0  0  0  0
    1.5791   -2.9230    0.3142 H   0  0  0  0  0  0  0  0  0  0  0  0
  1  2  1  0
  1 23  1  0
  1 24  1  0
  1 25  1  0
  2  3  1  0
  2 26  1  0
  3  4  2  0
  3  5  1  0
  5  6  1  0
  5 11  1  0
  5 27  1  1
  6  7  2  0
  6 28  1  0
  7  8  1  0
  8  9  1  0
  8 10  2  0
  9 29  1  0
  9 30  1  0
  9 31  1  0
 10 11  1  0
 10 13  1  0
 11 12  2  0
 13 14  2  0
 13 18  1  0
 14 15  1  0
 14 32  1  0
 15 16  2  0
 15 19  1  0
 16 17  1  0
 17 18  2  0
 17 33  1  0
 18 34  1  0
 19 20  1  0
 19 21  1  0
 19 22  1  0
M  END
>  <group_name>  (1) 
BRI

>  <molecule_index>  (1) 
00739

>  <conformer_index>  (1) 
04

>  <method>  (1) 
b3lyp-d3bj

>  <basis>  (1) 
dzvp

>  <program>  (1) 
psi4

>  <initial_energy>  (1) 
-724845.1660326645 kilocalorie / mole

>  <final_energy>  (1) 
-724887.8948494344 kilocalorie / mole

$$$$
