BRI-01231-08
     RDKit          3D

 32 33  0  0  0  0  0  0  0  0999 V2000
   -4.1816    0.0880   -1.1602 C   0  0  0  0  0  0  0  0  0  0  0  0
   -3.1521    0.0824   -0.1698 O   0  0  0  0  0  0  0  0  0  0  0  0
   -2.5656   -1.1071    0.1339 C   0  0  0  0  0  0  0  0  0  0  0  0
   -1.5078   -1.0525    1.0685 C   0  0  0  0  0  0  0  0  0  0  0  0
   -1.1671    0.1506    1.6646 O   0  0  0  0  0  0  0  0  0  0  0  0
   -0.6690    1.1662    0.8849 C   0  0  0  0  0  0  0  0  0  0  0  0
   -0.1445    0.9748   -0.4033 C   0  0  0  0  0  0  0  0  0  0  0  0
    0.3592    1.9752   -1.1247 N   0  0  0  0  0  0  0  0  0  0  0  0
    0.3666    3.2003   -0.5908 C   0  0  0  0  0  0  0  0  0  0  0  0
   -0.1215    3.4894    0.6850 C   0  0  0  0  0  0  0  0  0  0  0  0
   -0.6531    2.4452    1.4399 C   0  0  0  0  0  0  0  0  0  0  0  0
    0.9552    4.2791   -1.4762 C   0  0  0  0  0  0  0  0  0  0  0  0
    0.9249    5.4933   -0.8659 F   0  0  0  0  0  0  0  0  0  0  0  0
    2.2452    4.0239   -1.7924 F   0  0  0  0  0  0  0  0  0  0  0  0
    0.2746    4.4012   -2.6395 F   0  0  0  0  0  0  0  0  0  0  0  0
   -0.8440   -2.2068    1.4674 C   0  0  0  0  0  0  0  0  0  0  0  0
   -1.2097   -3.4434    0.9337 C   0  0  0  0  0  0  0  0  0  0  0  0
   -2.2435   -3.5079   -0.0056 C   0  0  0  0  0  0  0  0  0  0  0  0
   -2.9218   -2.3436   -0.4066 C   0  0  0  0  0  0  0  0  0  0  0  0
   -2.6013   -4.8385   -0.5627 C   0  0  0  0  0  0  0  0  0  0  0  0
   -3.6238   -4.7850   -1.4634 O   0  0  0  0  0  0  0  0  0  0  0  0
   -2.0583   -5.8882   -0.2684 O   0  0  0  0  0  0  0  0  0  0  0  0
   -5.0401   -0.5136   -0.8401 H   0  0  0  0  0  0  0  0  0  0  0  0
   -3.8062   -0.2820   -2.1210 H   0  0  0  0  0  0  0  0  0  0  0  0
   -4.4838    1.1300   -1.2638 H   0  0  0  0  0  0  0  0  0  0  0  0
   -0.1334   -0.0128   -0.8577 H   0  0  0  0  0  0  0  0  0  0  0  0
   -0.0911    4.5003    1.0756 H   0  0  0  0  0  0  0  0  0  0  0  0
   -1.0545    2.6044    2.4360 H   0  0  0  0  0  0  0  0  0  0  0  0
   -0.0422   -2.1176    2.1940 H   0  0  0  0  0  0  0  0  0  0  0  0
   -0.7021   -4.3554    1.2283 H   0  0  0  0  0  0  0  0  0  0  0  0
   -3.7231   -2.4241   -1.1295 H   0  0  0  0  0  0  0  0  0  0  0  0
   -3.7667   -5.7045   -1.7584 H   0  0  0  0  0  0  0  0  0  0  0  0
  1  2  1  0
  1 23  1  0
  1 24  1  0
  1 25  1  0
  2  3  1  0
  3  4  2  0
  3 19  1  0
  4  5  1  0
  4 16  1  0
  5  6  1  0
  6  7  2  0
  6 11  1  0
  7  8  1  0
  7 26  1  0
  8  9  2  0
  9 10  1  0
  9 12  1  0
 10 11  2  0
 10 27  1  0
 11 28  1  0
 12 13  1  0
 12 14  1  0
 12 15  1  0
 16 17  2  0
 16 29  1  0
 17 18  1  0
 17 30  1  0
 18 19  2  0
 18 20  1  0
 19 31  1  0
 20 21  1  0
 20 22  2  0
 21 32  1  0
M  END
>  <group_name>  (1) 
BRI

>  <molecule_index>  (1) 
01231

>  <conformer_index>  (1) 
08

>  <method>  (1) 
b3lyp-d3bj

>  <basis>  (1) 
dzvp

>  <program>  (1) 
psi4

>  <initial_energy>  (1) 
-749782.236866564 kilocalorie / mole

>  <final_energy>  (1) 
-749830.2162296473 kilocalorie / mole

$$$$
