BRI-01456-00
     RDKit          3D

 42 42  0  0  0  0  0  0  0  0999 V2000
   -0.8082    3.9141    2.6575 C   0  0  0  0  0  0  0  0  0  0  0  0
   -2.3029    4.1991    2.4507 C   0  0  0  0  0  0  0  0  0  0  0  0
   -3.0888    3.9574    3.7469 C   0  0  0  0  0  0  0  0  0  0  0  0
   -2.9223    3.3769    1.3077 C   0  0  0  0  0  0  0  0  0  0  0  0
   -2.2994    3.6295   -0.0847 C   0  0  2  0  0  0  0  0  0  0  0  0
   -3.3110    3.4226   -1.2461 C   0  0  0  0  0  0  0  0  0  0  0  0
   -4.1873    4.6575   -1.5035 C   0  0  2  0  0  0  0  0  0  0  0  0
   -5.1404    5.0263   -0.3685 C   0  0  0  0  0  0  0  0  0  0  0  0
   -6.1920    4.1665   -0.1536 N   0  0  0  0  0  0  0  0  0  0  0  0
   -4.9265    5.9943    0.3485 O   0  0  0  0  0  0  0  0  0  0  0  0
   -5.1670    4.4281   -3.0855 S   0  0  0  0  0  0  0  0  0  0  0  0
   -3.8466    4.3555   -4.1281 O   0  0  0  0  0  0  0  0  0  0  0  0
   -5.8665    5.7286   -3.3006 O   0  0  0  0  0  0  0  0  0  0  0  0
   -1.0734    2.7776   -0.3561 C   0  0  0  0  0  0  0  0  0  0  0  0
    0.0330    3.4234   -0.7458 N   0  0  0  0  0  0  0  0  0  0  0  0
    1.1284    2.7072   -1.0187 C   0  0  0  0  0  0  0  0  0  0  0  0
    1.2008    1.3192   -0.9353 C   0  0  0  0  0  0  0  0  0  0  0  0
    0.0405    0.6419   -0.5442 C   0  0  0  0  0  0  0  0  0  0  0  0
   -1.1047    1.3754   -0.2515 C   0  0  0  0  0  0  0  0  0  0  0  0
    2.3317    3.5341   -1.4357 C   0  0  0  0  0  0  0  0  0  0  0  0
    2.0808    4.2480   -2.5565 F   0  0  0  0  0  0  0  0  0  0  0  0
    3.4107    2.7507   -1.6916 F   0  0  0  0  0  0  0  0  0  0  0  0
    2.6918    4.4095   -0.4709 F   0  0  0  0  0  0  0  0  0  0  0  0
   -0.4272    4.4720    3.5199 H   0  0  0  0  0  0  0  0  0  0  0  0
   -0.6348    2.8474    2.8492 H   0  0  0  0  0  0  0  0  0  0  0  0
   -0.2077    4.2007    1.7903 H   0  0  0  0  0  0  0  0  0  0  0  0
   -2.4179    5.2576    2.1820 H   0  0  0  0  0  0  0  0  0  0  0  0
   -3.0152    2.9085    4.0611 H   0  0  0  0  0  0  0  0  0  0  0  0
   -4.1499    4.1984    3.6191 H   0  0  0  0  0  0  0  0  0  0  0  0
   -2.7007    4.5757    4.5635 H   0  0  0  0  0  0  0  0  0  0  0  0
   -3.9893    3.6046    1.2733 H   0  0  0  0  0  0  0  0  0  0  0  0
   -2.8573    2.3089    1.5542 H   0  0  0  0  0  0  0  0  0  0  0  0
   -1.9541    4.6665   -0.1314 H   0  0  0  0  0  0  0  0  0  0  0  0
   -3.9340    2.5428   -1.0455 H   0  0  0  0  0  0  0  0  0  0  0  0
   -2.7572    3.2214   -2.1675 H   0  0  0  0  0  0  0  0  0  0  0  0
   -3.5699    5.5433   -1.6789 H   0  0  0  0  0  0  0  0  0  0  0  0
   -6.4902    3.5103   -0.8650 H   0  0  0  0  0  0  0  0  0  0  0  0
   -6.9078    4.4939    0.4854 H   0  0  0  0  0  0  0  0  0  0  0  0
   -3.4945    5.2653   -4.2296 H   0  0  0  0  0  0  0  0  0  0  0  0
    2.1189    0.7916   -1.1667 H   0  0  0  0  0  0  0  0  0  0  0  0
    0.0373   -0.4421   -0.4682 H   0  0  0  0  0  0  0  0  0  0  0  0
   -2.0156    0.8710    0.0563 H   0  0  0  0  0  0  0  0  0  0  0  0
  1  2  1  0
  1 24  1  0
  1 25  1  0
  1 26  1  0
  2  3  1  0
  2  4  1  0
  2 27  1  0
  3 28  1  0
  3 29  1  0
  3 30  1  0
  4  5  1  0
  4 31  1  0
  4 32  1  0
  5  6  1  0
  5 14  1  0
  5 33  1  1
  6  7  1  0
  6 34  1  0
  6 35  1  0
  7  8  1  0
  7 11  1  0
  7 36  1  6
  8  9  1  0
  8 10  2  0
  9 37  1  0
  9 38  1  0
 11 12  1  6
 11 13  2  0
 12 39  1  0
 14 15  2  0
 14 19  1  0
 15 16  1  0
 16 17  2  0
 16 20  1  0
 17 18  1  0
 17 40  1  0
 18 19  2  0
 18 41  1  0
 19 42  1  0
 20 21  1  0
 20 22  1  0
 20 23  1  0
M  END
>  <group_name>  (1) 
BRI

>  <molecule_index>  (1) 
01456

>  <conformer_index>  (1) 
00

>  <method>  (1) 
b3lyp-d3bj

>  <basis>  (1) 
dzvp

>  <program>  (1) 
psi4

>  <initial_energy>  (1) 
-990179.7588178423 kilocalorie / mole

>  <final_energy>  (1) 
-990232.2212788552 kilocalorie / mole

$$$$
