BRI-01456-05
     RDKit          3D

 42 42  0  0  0  0  0  0  0  0999 V2000
   -1.7362    5.9558    2.6109 C   0  0  0  0  0  0  0  0  0  0  0  0
   -0.8202    5.3900    1.5135 C   0  0  0  0  0  0  0  0  0  0  0  0
    0.6030    5.9460    1.6715 C   0  0  0  0  0  0  0  0  0  0  0  0
   -1.3653    5.6834    0.0938 C   0  0  0  0  0  0  0  0  0  0  0  0
   -2.1670    4.5388   -0.5805 C   0  0  2  0  0  0  0  0  0  0  0  0
   -3.4226    4.1567    0.2167 C   0  0  0  0  0  0  0  0  0  0  0  0
   -4.3087    3.1496   -0.5188 C   0  0  2  0  0  0  0  0  0  0  0  0
   -5.0569    3.7742   -1.7079 C   0  0  0  0  0  0  0  0  0  0  0  0
   -5.7533    2.8966   -2.4904 N   0  0  0  0  0  0  0  0  0  0  0  0
   -4.9674    4.9722   -1.9576 O   0  0  0  0  0  0  0  0  0  0  0  0
   -5.4835    2.4642    0.7529 S   0  0  0  0  0  0  0  0  0  0  0  0
   -5.8956    1.1183   -0.2561 O   0  0  0  0  0  0  0  0  0  0  0  0
   -6.6569    3.3778    0.8315 O   0  0  0  0  0  0  0  0  0  0  0  0
   -1.2568    3.3516   -0.8325 C   0  0  0  0  0  0  0  0  0  0  0  0
   -1.3057    2.3224    0.0235 N   0  0  0  0  0  0  0  0  0  0  0  0
   -0.4761    1.2904   -0.1639 C   0  0  0  0  0  0  0  0  0  0  0  0
    0.4493    1.2057   -1.1991 C   0  0  0  0  0  0  0  0  0  0  0  0
    0.4984    2.2767   -2.1005 C   0  0  0  0  0  0  0  0  0  0  0  0
   -0.3605    3.3548   -1.9172 C   0  0  0  0  0  0  0  0  0  0  0  0
   -0.6222    0.1819    0.8618 C   0  0  0  0  0  0  0  0  0  0  0  0
    0.2163   -0.8531    0.6066 F   0  0  0  0  0  0  0  0  0  0  0  0
   -1.8815   -0.3160    0.8777 F   0  0  0  0  0  0  0  0  0  0  0  0
   -0.3498    0.6210    2.1120 F   0  0  0  0  0  0  0  0  0  0  0  0
   -1.7793    7.0502    2.5501 H   0  0  0  0  0  0  0  0  0  0  0  0
   -1.3630    5.6920    3.6066 H   0  0  0  0  0  0  0  0  0  0  0  0
   -2.7602    5.5810    2.5293 H   0  0  0  0  0  0  0  0  0  0  0  0
   -0.7643    4.3033    1.6484 H   0  0  0  0  0  0  0  0  0  0  0  0
    0.6197    7.0313    1.5112 H   0  0  0  0  0  0  0  0  0  0  0  0
    0.9958    5.7515    2.6757 H   0  0  0  0  0  0  0  0  0  0  0  0
    1.2883    5.4902    0.9477 H   0  0  0  0  0  0  0  0  0  0  0  0
   -0.5296    5.9287   -0.5721 H   0  0  0  0  0  0  0  0  0  0  0  0
   -2.0040    6.5746    0.1151 H   0  0  0  0  0  0  0  0  0  0  0  0
   -2.4922    4.9223   -1.5523 H   0  0  0  0  0  0  0  0  0  0  0  0
   -4.0040    5.0612    0.4090 H   0  0  0  0  0  0  0  0  0  0  0  0
   -3.1195    3.7268    1.1746 H   0  0  0  0  0  0  0  0  0  0  0  0
   -3.7395    2.2719   -0.8340 H   0  0  0  0  0  0  0  0  0  0  0  0
   -6.0258    2.0014   -2.0949 H   0  0  0  0  0  0  0  0  0  0  0  0
   -6.3830    3.3218   -3.1613 H   0  0  0  0  0  0  0  0  0  0  0  0
   -6.4475    0.5150    0.2759 H   0  0  0  0  0  0  0  0  0  0  0  0
    1.0961    0.3421   -1.3031 H   0  0  0  0  0  0  0  0  0  0  0  0
    1.1954    2.2601   -2.9340 H   0  0  0  0  0  0  0  0  0  0  0  0
   -0.3507    4.1968   -2.6038 H   0  0  0  0  0  0  0  0  0  0  0  0
  1  2  1  0
  1 24  1  0
  1 25  1  0
  1 26  1  0
  2  3  1  0
  2  4  1  0
  2 27  1  0
  3 28  1  0
  3 29  1  0
  3 30  1  0
  4  5  1  0
  4 31  1  0
  4 32  1  0
  5  6  1  0
  5 14  1  0
  5 33  1  6
  6  7  1  0
  6 34  1  0
  6 35  1  0
  7  8  1  0
  7 11  1  0
  7 36  1  6
  8  9  1  0
  8 10  2  0
  9 37  1  0
  9 38  1  0
 11 12  1  6
 11 13  2  0
 12 39  1  0
 14 15  2  0
 14 19  1  0
 15 16  1  0
 16 17  2  0
 16 20  1  0
 17 18  1  0
 17 40  1  0
 18 19  2  0
 18 41  1  0
 19 42  1  0
 20 21  1  0
 20 22  1  0
 20 23  1  0
M  END
>  <group_name>  (1) 
BRI

>  <molecule_index>  (1) 
01456

>  <conformer_index>  (1) 
05

>  <method>  (1) 
b3lyp-d3bj

>  <basis>  (1) 
dzvp

>  <program>  (1) 
psi4

>  <initial_energy>  (1) 
-990140.0050008973 kilocalorie / mole

>  <final_energy>  (1) 
-990239.5210819549 kilocalorie / mole

$$$$
