BRI-01456-03
     RDKit          3D

 42 42  0  0  0  0  0  0  0  0999 V2000
   -0.9395    4.6930    3.0388 C   0  0  0  0  0  0  0  0  0  0  0  0
   -1.9086    4.0326    2.0457 C   0  0  0  0  0  0  0  0  0  0  0  0
   -3.3453    4.1054    2.5900 C   0  0  0  0  0  0  0  0  0  0  0  0
   -1.7540    4.6803    0.6502 C   0  0  0  0  0  0  0  0  0  0  0  0
   -1.9544    3.7498   -0.5742 C   0  0  2  0  0  0  0  0  0  0  0  0
   -3.3421    3.1003   -0.6802 C   0  0  0  0  0  0  0  0  0  0  0  0
   -4.4998    4.0930   -0.7950 C   0  0  2  0  0  0  0  0  0  0  0  0
   -5.8611    3.3927   -0.5997 C   0  0  0  0  0  0  0  0  0  0  0  0
   -6.9519    4.2118   -0.6169 N   0  0  0  0  0  0  0  0  0  0  0  0
   -5.9229    2.1907   -0.3681 O   0  0  0  0  0  0  0  0  0  0  0  0
   -4.3696    4.9013   -2.4695 S   0  0  0  0  0  0  0  0  0  0  0  0
   -5.4086    6.1994   -1.9894 O   0  0  0  0  0  0  0  0  0  0  0  0
   -5.0926    4.0343   -3.4403 O   0  0  0  0  0  0  0  0  0  0  0  0
   -0.8313    2.7240   -0.6121 C   0  0  0  0  0  0  0  0  0  0  0  0
    0.3878    3.2302   -0.8537 N   0  0  0  0  0  0  0  0  0  0  0  0
    1.4340    2.4044   -0.8763 C   0  0  0  0  0  0  0  0  0  0  0  0
    1.3537    1.0285   -0.6633 C   0  0  0  0  0  0  0  0  0  0  0  0
    0.0863    0.4983   -0.4130 C   0  0  0  0  0  0  0  0  0  0  0  0
   -1.0173    1.3501   -0.3870 C   0  0  0  0  0  0  0  0  0  0  0  0
    2.7644    3.0808   -1.1575 C   0  0  0  0  0  0  0  0  0  0  0  0
    3.0517    4.0178   -0.2251 F   0  0  0  0  0  0  0  0  0  0  0  0
    2.7676    3.6953   -2.3614 F   0  0  0  0  0  0  0  0  0  0  0  0
    3.7878    2.1887   -1.1585 F   0  0  0  0  0  0  0  0  0  0  0  0
   -1.0309    4.2506    4.0370 H   0  0  0  0  0  0  0  0  0  0  0  0
   -1.1477    5.7663    3.1301 H   0  0  0  0  0  0  0  0  0  0  0  0
    0.0993    4.5814    2.7107 H   0  0  0  0  0  0  0  0  0  0  0  0
   -1.6276    2.9736    1.9694 H   0  0  0  0  0  0  0  0  0  0  0  0
   -3.6718    5.1493    2.6765 H   0  0  0  0  0  0  0  0  0  0  0  0
   -3.4040    3.6599    3.5891 H   0  0  0  0  0  0  0  0  0  0  0  0
   -4.0684    3.5797    1.9614 H   0  0  0  0  0  0  0  0  0  0  0  0
   -0.7427    5.0854    0.5520 H   0  0  0  0  0  0  0  0  0  0  0  0
   -2.4272    5.5435    0.5709 H   0  0  0  0  0  0  0  0  0  0  0  0
   -1.7868    4.3786   -1.4573 H   0  0  0  0  0  0  0  0  0  0  0  0
   -3.3804    2.4238   -1.5414 H   0  0  0  0  0  0  0  0  0  0  0  0
   -3.5516    2.4722    0.1862 H   0  0  0  0  0  0  0  0  0  0  0  0
   -4.4081    4.9188   -0.0865 H   0  0  0  0  0  0  0  0  0  0  0  0
   -6.8794    5.1305   -1.0425 H   0  0  0  0  0  0  0  0  0  0  0  0
   -7.8509    3.7452   -0.6433 H   0  0  0  0  0  0  0  0  0  0  0  0
   -5.4379    6.8339   -2.7301 H   0  0  0  0  0  0  0  0  0  0  0  0
    2.2392    0.4042   -0.6936 H   0  0  0  0  0  0  0  0  0  0  0  0
   -0.0388   -0.5672   -0.2402 H   0  0  0  0  0  0  0  0  0  0  0  0
   -2.0058    0.9485   -0.1958 H   0  0  0  0  0  0  0  0  0  0  0  0
  1  2  1  0
  1 24  1  0
  1 25  1  0
  1 26  1  0
  2  3  1  0
  2  4  1  0
  2 27  1  0
  3 28  1  0
  3 29  1  0
  3 30  1  0
  4  5  1  0
  4 31  1  0
  4 32  1  0
  5  6  1  0
  5 14  1  0
  5 33  1  6
  6  7  1  0
  6 34  1  0
  6 35  1  0
  7  8  1  0
  7 11  1  0
  7 36  1  1
  8  9  1  0
  8 10  2  0
  9 37  1  0
  9 38  1  0
 11 12  1  1
 11 13  2  0
 12 39  1  0
 14 15  2  0
 14 19  1  0
 15 16  1  0
 16 17  2  0
 16 20  1  0
 17 18  1  0
 17 40  1  0
 18 19  2  0
 18 41  1  0
 19 42  1  0
 20 21  1  0
 20 22  1  0
 20 23  1  0
M  END
>  <group_name>  (1) 
BRI

>  <molecule_index>  (1) 
01456

>  <conformer_index>  (1) 
03

>  <method>  (1) 
b3lyp-d3bj

>  <basis>  (1) 
dzvp

>  <program>  (1) 
psi4

>  <initial_energy>  (1) 
-990170.2828688071 kilocalorie / mole

>  <final_energy>  (1) 
-990236.2666639463 kilocalorie / mole

$$$$
