BRI-00593-02
     RDKit          3D

 36 38  0  0  0  0  0  0  0  0999 V2000
    5.6490    3.5661   -0.6219 C   0  0  0  0  0  0  0  0  0  0  0  0
    4.4864    4.4246   -1.0854 C   0  0  0  0  0  0  0  0  0  0  0  0
    3.2663    3.7212   -0.7432 O   0  0  0  0  0  0  0  0  0  0  0  0
    2.1114    4.3516   -1.0980 C   0  0  0  0  0  0  0  0  0  0  0  0
    2.1023    5.4317   -1.6561 O   0  0  0  0  0  0  0  0  0  0  0  0
    0.9195    3.5460   -0.7190 C   0  0  0  0  0  0  0  0  0  0  0  0
   -0.4182    3.9607   -0.8945 C   0  0  0  0  0  0  0  0  0  0  0  0
   -1.4666    3.2174   -0.5636 N   0  0  0  0  0  0  0  0  0  0  0  0
   -1.2860    1.9954   -0.0199 C   0  0  0  0  0  0  0  0  0  0  0  0
    0.0159    1.4767    0.1955 C   0  0  0  0  0  0  0  0  0  0  0  0
    1.0941    2.2629   -0.1546 C   0  0  0  0  0  0  0  0  0  0  0  0
   -2.4120    1.3073    0.3036 N   0  0  0  0  0  0  0  0  0  0  0  0
   -3.7526    1.7867   -0.0705 C   0  0  0  0  0  0  0  0  0  0  0  0
   -4.6875    0.8002    0.6019 C   0  0  2  0  0  0  0  0  0  0  0  0
   -4.5124    0.6043    2.0903 C   0  0  0  0  0  0  0  0  0  0  0  0
   -3.8569   -0.3559    1.1223 C   0  0  2  0  0  0  0  0  0  0  0  0
   -2.4065   -0.0800    0.7735 C   0  0  0  0  0  0  0  0  0  0  0  0
   -0.8208    5.3225   -1.4865 C   0  0  0  0  0  0  0  0  0  0  0  0
   -0.4132    5.4510   -2.7681 F   0  0  0  0  0  0  0  0  0  0  0  0
   -0.3186    6.3491   -0.7651 F   0  0  0  0  0  0  0  0  0  0  0  0
   -2.1617    5.4747   -1.4911 F   0  0  0  0  0  0  0  0  0  0  0  0
    6.5935    4.0649   -0.8623 H   0  0  0  0  0  0  0  0  0  0  0  0
    5.6109    3.4051    0.4597 H   0  0  0  0  0  0  0  0  0  0  0  0
    5.6393    2.5913   -1.1190 H   0  0  0  0  0  0  0  0  0  0  0  0
    4.4766    5.4026   -0.5962 H   0  0  0  0  0  0  0  0  0  0  0  0
    4.5041    4.5921   -2.1659 H   0  0  0  0  0  0  0  0  0  0  0  0
    0.1682    0.4899    0.6173 H   0  0  0  0  0  0  0  0  0  0  0  0
    2.1019    1.8951   -0.0031 H   0  0  0  0  0  0  0  0  0  0  0  0
   -3.8832    2.8187    0.2636 H   0  0  0  0  0  0  0  0  0  0  0  0
   -3.8790    1.7746   -1.1609 H   0  0  0  0  0  0  0  0  0  0  0  0
   -5.6622    0.6335    0.1553 H   0  0  0  0  0  0  0  0  0  0  0  0
   -5.3672    0.2390    2.6511 H   0  0  0  0  0  0  0  0  0  0  0  0
   -3.8783    1.3054    2.6286 H   0  0  0  0  0  0  0  0  0  0  0  0
   -4.2105   -1.3800    1.0639 H   0  0  0  0  0  0  0  0  0  0  0  0
   -2.0562   -0.7670   -0.0115 H   0  0  0  0  0  0  0  0  0  0  0  0
   -1.7419   -0.1869    1.6392 H   0  0  0  0  0  0  0  0  0  0  0  0
  1  2  1  0
  1 22  1  0
  1 23  1  0
  1 24  1  0
  2  3  1  0
  2 25  1  0
  2 26  1  0
  3  4  1  0
  4  5  2  0
  4  6  1  0
  6  7  2  0
  6 11  1  0
  7  8  1  0
  7 18  1  0
  8  9  2  0
  9 10  1  0
  9 12  1  0
 10 11  2  0
 10 27  1  0
 11 28  1  0
 12 13  1  0
 12 17  1  0
 13 14  1  0
 13 29  1  0
 13 30  1  0
 14 15  1  0
 14 16  1  0
 14 31  1  1
 15 16  1  0
 15 32  1  0
 15 33  1  0
 16 17  1  0
 16 34  1  1
 17 35  1  0
 17 36  1  0
 18 19  1  0
 18 20  1  0
 18 21  1  0
M  END
>  <group_name>  (1) 
BRI

>  <molecule_index>  (1) 
00593

>  <conformer_index>  (1) 
02

>  <method>  (1) 
b3lyp-d3bj

>  <basis>  (1) 
dzvp

>  <program>  (1) 
psi4

>  <initial_energy>  (1) 
-691622.1312523611 kilocalorie / mole

>  <final_energy>  (1) 
-691652.8652234998 kilocalorie / mole

$$$$
