BRI-00739-05
     RDKit          3D

 34 35  0  0  0  0  0  0  0  0999 V2000
    8.1322    0.4647    2.8011 C   0  0  0  0  0  0  0  0  0  0  0  0
    7.0496   -0.1346    2.0284 N   0  0  0  0  0  0  0  0  0  0  0  0
    7.3109   -0.9626    0.9992 C   0  0  0  0  0  0  0  0  0  0  0  0
    8.4423   -1.2638    0.6205 O   0  0  0  0  0  0  0  0  0  0  0  0
    6.0806   -1.5907    0.2752 C   0  0  2  0  0  0  0  0  0  0  0  0
    6.4062   -1.8301   -1.1690 C   0  0  0  0  0  0  0  0  0  0  0  0
    5.5668   -1.7754   -2.1387 N   0  0  0  0  0  0  0  0  0  0  0  0
    4.2256   -1.4384   -1.8693 C   0  0  0  0  0  0  0  0  0  0  0  0
    3.3862   -1.4582   -3.1130 C   0  0  0  0  0  0  0  0  0  0  0  0
    3.7611   -1.0822   -0.6287 C   0  0  0  0  0  0  0  0  0  0  0  0
    4.6971   -0.9964    0.5007 C   0  0  0  0  0  0  0  0  0  0  0  0
    4.3653   -0.5253    1.5931 O   0  0  0  0  0  0  0  0  0  0  0  0
    2.3456   -0.7183   -0.3670 C   0  0  0  0  0  0  0  0  0  0  0  0
    1.9997    0.5324    0.1672 C   0  0  0  0  0  0  0  0  0  0  0  0
    0.6535    0.8070    0.3927 C   0  0  0  0  0  0  0  0  0  0  0  0
   -0.3470   -0.0469    0.1477 N   0  0  0  0  0  0  0  0  0  0  0  0
   -0.0128   -1.2417   -0.3464 C   0  0  0  0  0  0  0  0  0  0  0  0
    1.3060   -1.6214   -0.6160 C   0  0  0  0  0  0  0  0  0  0  0  0
    0.2147    2.1476    0.9566 C   0  0  0  0  0  0  0  0  0  0  0  0
   -0.4314    2.0046    2.1343 F   0  0  0  0  0  0  0  0  0  0  0  0
    1.2744    2.9681    1.1749 F   0  0  0  0  0  0  0  0  0  0  0  0
   -0.6213    2.7914    0.1111 F   0  0  0  0  0  0  0  0  0  0  0  0
    8.6889   -0.2962    3.3579 H   0  0  0  0  0  0  0  0  0  0  0  0
    8.8306    0.9802    2.1373 H   0  0  0  0  0  0  0  0  0  0  0  0
    7.7022    1.1826    3.5014 H   0  0  0  0  0  0  0  0  0  0  0  0
    6.0783   -0.0235    2.3093 H   0  0  0  0  0  0  0  0  0  0  0  0
    6.0132   -2.5990    0.7208 H   0  0  0  0  0  0  0  0  0  0  0  0
    7.4432   -2.0752   -1.3935 H   0  0  0  0  0  0  0  0  0  0  0  0
    3.2761   -2.4917   -3.4629 H   0  0  0  0  0  0  0  0  0  0  0  0
    3.9213   -0.9220   -3.9027 H   0  0  0  0  0  0  0  0  0  0  0  0
    2.3978   -1.0224   -2.9752 H   0  0  0  0  0  0  0  0  0  0  0  0
    2.7588    1.2689    0.3978 H   0  0  0  0  0  0  0  0  0  0  0  0
   -0.8335   -1.9314   -0.5347 H   0  0  0  0  0  0  0  0  0  0  0  0
    1.5156   -2.6131   -1.0062 H   0  0  0  0  0  0  0  0  0  0  0  0
  1  2  1  0
  1 23  1  0
  1 24  1  0
  1 25  1  0
  2  3  1  0
  2 26  1  0
  3  4  2  0
  3  5  1  0
  5  6  1  0
  5 11  1  0
  5 27  1  1
  6  7  2  0
  6 28  1  0
  7  8  1  0
  8  9  1  0
  8 10  2  0
  9 29  1  0
  9 30  1  0
  9 31  1  0
 10 11  1  0
 10 13  1  0
 11 12  2  0
 13 14  2  0
 13 18  1  0
 14 15  1  0
 14 32  1  0
 15 16  2  0
 15 19  1  0
 16 17  1  0
 17 18  2  0
 17 33  1  0
 18 34  1  0
 19 20  1  0
 19 21  1  0
 19 22  1  0
M  END
>  <group_name>  (1) 
BRI

>  <molecule_index>  (1) 
00739

>  <conformer_index>  (1) 
05

>  <method>  (1) 
b3lyp-d3bj

>  <basis>  (1) 
dzvp

>  <program>  (1) 
psi4

>  <initial_energy>  (1) 
-724843.7188524808 kilocalorie / mole

>  <final_energy>  (1) 
-724887.8947534163 kilocalorie / mole

$$$$
