BRI-00649-04
     RDKit          3D

 53 55  0  0  0  0  0  0  0  0999 V2000
    3.4525   -3.0013   -2.6618 C   0  0  0  0  0  0  0  0  0  0  0  0
    4.5307   -3.2990   -1.6198 C   0  0  0  0  0  0  0  0  0  0  0  0
    5.4146   -2.1528   -1.3694 N   0  0  0  0  0  0  0  0  0  0  0  0
    4.8841   -1.1126   -0.4686 C   0  0  1  0  0  0  0  0  0  0  0  0
    3.8071   -1.2882   -0.4250 H   0  0  0  0  0  0  0  0  0  0  0  0
    5.4508   -1.2349    0.9512 C   0  0  0  0  0  0  0  0  0  0  0  0
    5.0645    0.2888   -1.0892 C   0  0  0  0  0  0  0  0  0  0  0  0
    4.4260    1.3425   -0.3114 N   0  0  0  0  0  0  0  0  0  0  0  0
    3.0655    1.5017   -0.2301 C   0  0  0  0  0  0  0  0  0  0  0  0
    2.5010    2.4390    0.6754 C   0  0  0  0  0  0  0  0  0  0  0  0
    1.1273    2.5963    0.7078 C   0  0  0  0  0  0  0  0  0  0  0  0
    0.3480    1.8271   -0.1602 C   0  0  0  0  0  0  0  0  0  0  0  0
   -0.9994    1.9571   -0.1417 F   0  0  0  0  0  0  0  0  0  0  0  0
    0.9716    0.9354   -1.0216 C   0  0  0  0  0  0  0  0  0  0  0  0
    2.2983    0.7670   -1.0508 N   0  0  0  0  0  0  0  0  0  0  0  0
    0.1436    0.0827   -1.9705 C   0  0  0  0  0  0  0  0  0  0  0  0
   -0.6401   -0.7898   -1.2848 F   0  0  0  0  0  0  0  0  0  0  0  0
    0.9118   -0.6385   -2.8060 F   0  0  0  0  0  0  0  0  0  0  0  0
   -0.6796    0.8447   -2.7304 F   0  0  0  0  0  0  0  0  0  0  0  0
    6.7422   -2.1705   -1.6747 C   0  0  0  0  0  0  0  0  0  0  0  0
    7.5518   -1.3292   -1.2692 O   0  0  0  0  0  0  0  0  0  0  0  0
    7.2144   -3.2297   -2.6458 C   0  0  0  0  0  0  0  0  0  0  0  0
    8.0879   -4.2497   -2.2227 C   0  0  0  0  0  0  0  0  0  0  0  0
    8.5856   -5.1198   -3.1989 C   0  0  0  0  0  0  0  0  0  0  0  0
    9.3747   -6.1548   -2.8318 F   0  0  0  0  0  0  0  0  0  0  0  0
    8.2664   -5.0000   -4.5477 C   0  0  0  0  0  0  0  0  0  0  0  0
    7.4158   -3.9680   -4.9467 C   0  0  0  0  0  0  0  0  0  0  0  0
    6.8882   -3.0892   -3.9973 C   0  0  0  0  0  0  0  0  0  0  0  0
    8.4417   -4.3949   -0.7868 C   0  0  0  0  0  0  0  0  0  0  0  0
    9.7273   -4.6279   -0.4783 N   0  0  0  0  0  0  0  0  0  0  0  0
   10.0208   -4.7149    0.8227 C   0  0  0  0  0  0  0  0  0  0  0  0
    9.0547   -4.5708    1.8206 C   0  0  0  0  0  0  0  0  0  0  0  0
    7.7496   -4.3385    1.3872 C   0  0  0  0  0  0  0  0  0  0  0  0
    7.4322   -4.2548    0.0915 N   0  0  0  0  0  0  0  0  0  0  0  0
    3.9033   -2.8221   -3.6426 H   0  0  0  0  0  0  0  0  0  0  0  0
    2.7685   -3.8521   -2.7511 H   0  0  0  0  0  0  0  0  0  0  0  0
    2.8637   -2.1208   -2.3927 H   0  0  0  0  0  0  0  0  0  0  0  0
    5.1386   -4.1501   -1.9239 H   0  0  0  0  0  0  0  0  0  0  0  0
    4.0718   -3.5783   -0.6637 H   0  0  0  0  0  0  0  0  0  0  0  0
    6.5238   -1.0342    0.9635 H   0  0  0  0  0  0  0  0  0  0  0  0
    5.2837   -2.2464    1.3336 H   0  0  0  0  0  0  0  0  0  0  0  0
    4.9417   -0.5362    1.6234 H   0  0  0  0  0  0  0  0  0  0  0  0
    6.1245    0.5271   -1.1701 H   0  0  0  0  0  0  0  0  0  0  0  0
    4.6324    0.2842   -2.0926 H   0  0  0  0  0  0  0  0  0  0  0  0
    4.9754    1.7772    0.4161 H   0  0  0  0  0  0  0  0  0  0  0  0
    3.1405    3.0264    1.3289 H   0  0  0  0  0  0  0  0  0  0  0  0
    0.6478    3.2978    1.3839 H   0  0  0  0  0  0  0  0  0  0  0  0
    8.6793   -5.7123   -5.2551 H   0  0  0  0  0  0  0  0  0  0  0  0
    7.1632   -3.8520   -5.9970 H   0  0  0  0  0  0  0  0  0  0  0  0
    6.2345   -2.2791   -4.3065 H   0  0  0  0  0  0  0  0  0  0  0  0
   11.0649   -4.9006    1.0713 H   0  0  0  0  0  0  0  0  0  0  0  0
    9.3050   -4.6373    2.8747 H   0  0  0  0  0  0  0  0  0  0  0  0
    6.9321   -4.2177    2.0968 H   0  0  0  0  0  0  0  0  0  0  0  0
  1  2  1  0
  1 35  1  0
  1 36  1  0
  1 37  1  0
  2  3  1  0
  2 38  1  0
  2 39  1  0
  3  4  1  0
  3 20  1  0
  4  5  1  1
  4  6  1  0
  4  7  1  0
  6 40  1  0
  6 41  1  0
  6 42  1  0
  7  8  1  0
  7 43  1  0
  7 44  1  0
  8  9  1  0
  8 45  1  0
  9 10  2  0
  9 15  1  0
 10 11  1  0
 10 46  1  0
 11 12  2  0
 11 47  1  0
 12 13  1  0
 12 14  1  0
 14 15  2  0
 14 16  1  0
 16 17  1  0
 16 18  1  0
 16 19  1  0
 20 21  2  0
 20 22  1  0
 22 23  1  0
 22 28  2  0
 23 24  2  0
 23 29  1  0
 24 25  1  0
 24 26  1  0
 26 27  2  0
 26 48  1  0
 27 28  1  0
 27 49  1  0
 28 50  1  0
 29 30  2  0
 29 34  1  0
 30 31  1  0
 31 32  2  0
 31 51  1  0
 32 33  1  0
 32 52  1  0
 33 34  2  0
 33 53  1  0
M  END
>  <group_name>  (1) 
BRI

>  <molecule_index>  (1) 
00649

>  <conformer_index>  (1) 
04

>  <method>  (1) 
b3lyp-d3bj

>  <basis>  (1) 
dzvp

>  <program>  (1) 
psi4

>  <initial_energy>  (1) 
-1066060.5539058787 kilocalorie / mole

>  <final_energy>  (1) 
-1066103.1108776054 kilocalorie / mole

$$$$
