BRI-00638-05
     RDKit          3D

 45 45  0  0  0  0  0  0  0  0999 V2000
   -1.6069    3.6917    3.3945 C   0  0  0  0  0  0  0  0  0  0  0  0
   -1.0146    4.6521    2.3791 C   0  0  0  0  0  0  0  0  0  0  0  0
   -2.0326    4.9599    1.4141 O   0  0  0  0  0  0  0  0  0  0  0  0
   -1.5867    5.7251    0.3149 C   0  0  0  0  0  0  0  0  0  0  0  0
   -0.9326    4.8772   -0.7841 C   0  0  0  0  0  0  0  0  0  0  0  0
   -1.8072    3.7842   -1.2527 N   0  0  0  0  0  0  0  0  0  0  0  0
   -1.6594    2.2564   -0.5554 S   0  0  0  0  0  0  0  0  0  0  0  0
   -2.9920    1.8108   -0.1434 O   0  0  0  0  0  0  0  0  0  0  0  0
   -0.5308    2.2858    0.3967 O   0  0  0  0  0  0  0  0  0  0  0  0
   -1.1159    1.1989   -1.9830 C   0  0  0  0  0  0  0  0  0  0  0  0
    0.2190    1.7493   -2.5116 C   0  0  0  0  0  0  0  0  0  0  0  0
   -2.2119    1.2486   -3.0484 C   0  0  0  0  0  0  0  0  0  0  0  0
   -0.9173   -0.2671   -1.5024 C   0  0  0  0  0  0  0  0  0  0  0  0
   -1.3492   -1.1930   -2.1794 O   0  0  0  0  0  0  0  0  0  0  0  0
   -0.1722   -0.4259   -0.3628 N   0  0  0  0  0  0  0  0  0  0  0  0
    0.2002   -1.6233    0.2661 C   0  0  0  0  0  0  0  0  0  0  0  0
   -0.1276   -2.9075   -0.2114 C   0  0  0  0  0  0  0  0  0  0  0  0
    0.3171   -4.0005    0.5249 C   0  0  0  0  0  0  0  0  0  0  0  0
    1.0625   -3.8058    1.6943 C   0  0  0  0  0  0  0  0  0  0  0  0
    1.3241   -2.4896    2.0650 C   0  0  0  0  0  0  0  0  0  0  0  0
    0.9117   -1.4219    1.3800 N   0  0  0  0  0  0  0  0  0  0  0  0
    2.1186   -2.1628    3.3171 C   0  0  0  0  0  0  0  0  0  0  0  0
    1.3774   -1.4699    4.2107 F   0  0  0  0  0  0  0  0  0  0  0  0
    3.2105   -1.4176    3.0345 F   0  0  0  0  0  0  0  0  0  0  0  0
    2.5502   -3.2890    3.9396 F   0  0  0  0  0  0  0  0  0  0  0  0
   -0.8631    3.4514    4.1613 H   0  0  0  0  0  0  0  0  0  0  0  0
   -2.4812    4.1340    3.8819 H   0  0  0  0  0  0  0  0  0  0  0  0
   -1.9094    2.7648    2.9012 H   0  0  0  0  0  0  0  0  0  0  0  0
   -0.6853    5.5874    2.8578 H   0  0  0  0  0  0  0  0  0  0  0  0
   -0.1522    4.1888    1.8871 H   0  0  0  0  0  0  0  0  0  0  0  0
   -0.8821    6.5129    0.6239 H   0  0  0  0  0  0  0  0  0  0  0  0
   -2.4763    6.2212   -0.0920 H   0  0  0  0  0  0  0  0  0  0  0  0
   -0.0002    4.4322   -0.4352 H   0  0  0  0  0  0  0  0  0  0  0  0
   -0.6961    5.5147   -1.6442 H   0  0  0  0  0  0  0  0  0  0  0  0
   -2.7982    4.0231   -1.2376 H   0  0  0  0  0  0  0  0  0  0  0  0
    0.0789    2.7605   -2.9023 H   0  0  0  0  0  0  0  0  0  0  0  0
    0.9925    1.7679   -1.7413 H   0  0  0  0  0  0  0  0  0  0  0  0
    0.5604    1.1093   -3.3307 H   0  0  0  0  0  0  0  0  0  0  0  0
   -3.1611    0.8805   -2.6565 H   0  0  0  0  0  0  0  0  0  0  0  0
   -2.3343    2.2730   -3.4074 H   0  0  0  0  0  0  0  0  0  0  0  0
   -1.9212    0.6107   -3.8848 H   0  0  0  0  0  0  0  0  0  0  0  0
    0.0912    0.4074    0.1658 H   0  0  0  0  0  0  0  0  0  0  0  0
   -0.7074   -3.0193   -1.1166 H   0  0  0  0  0  0  0  0  0  0  0  0
    0.0821   -5.0065    0.1885 H   0  0  0  0  0  0  0  0  0  0  0  0
    1.4226   -4.6371    2.2886 H   0  0  0  0  0  0  0  0  0  0  0  0
  1  2  1  0
  1 26  1  0
  1 27  1  0
  1 28  1  0
  2  3  1  0
  2 29  1  0
  2 30  1  0
  3  4  1  0
  4  5  1  0
  4 31  1  0
  4 32  1  0
  5  6  1  0
  5 33  1  0
  5 34  1  0
  6  7  1  0
  6 35  1  0
  7  8  2  0
  7  9  2  0
  7 10  1  0
 10 11  1  0
 10 12  1  0
 10 13  1  0
 11 36  1  0
 11 37  1  0
 11 38  1  0
 12 39  1  0
 12 40  1  0
 12 41  1  0
 13 14  2  0
 13 15  1  0
 15 16  1  0
 15 42  1  0
 16 17  2  0
 16 21  1  0
 17 18  1  0
 17 43  1  0
 18 19  2  0
 18 44  1  0
 19 20  1  0
 19 45  1  0
 20 21  2  0
 20 22  1  0
 22 23  1  0
 22 24  1  0
 22 25  1  0
M  END
>  <group_name>  (1) 
BRI

>  <molecule_index>  (1) 
00638

>  <conformer_index>  (1) 
05

>  <method>  (1) 
b3lyp-d3bj

>  <basis>  (1) 
dzvp

>  <program>  (1) 
psi4

>  <initial_energy>  (1) 
-1072116.2526720006 kilocalorie / mole

>  <final_energy>  (1) 
-1072180.3038305861 kilocalorie / mole

$$$$
