BRI-00649-06
     RDKit          3D

 53 55  0  0  0  0  0  0  0  0999 V2000
    7.1349   -0.7806   -2.3724 C   0  0  0  0  0  0  0  0  0  0  0  0
    5.8151   -0.5864   -1.6214 C   0  0  0  0  0  0  0  0  0  0  0  0
    5.7189   -1.2843   -0.3301 N   0  0  0  0  0  0  0  0  0  0  0  0
    5.9127   -0.5218    0.9077 C   0  0  1  0  0  0  0  0  0  0  0  0
    5.8447   -1.2654    1.7030 H   0  0  0  0  0  0  0  0  0  0  0  0
    7.2893    0.1445    0.9888 C   0  0  0  0  0  0  0  0  0  0  0  0
    4.7821    0.5091    1.1267 C   0  0  0  0  0  0  0  0  0  0  0  0
    3.4572   -0.0444    0.8626 N   0  0  0  0  0  0  0  0  0  0  0  0
    2.7510    0.2488   -0.2876 C   0  0  0  0  0  0  0  0  0  0  0  0
    2.7658    1.5338   -0.8858 C   0  0  0  0  0  0  0  0  0  0  0  0
    2.0165    1.7508   -2.0319 C   0  0  0  0  0  0  0  0  0  0  0  0
    1.2560    0.7001   -2.5428 C   0  0  0  0  0  0  0  0  0  0  0  0
    0.5202    0.8843   -3.6627 F   0  0  0  0  0  0  0  0  0  0  0  0
    1.2640   -0.5236   -1.8834 C   0  0  0  0  0  0  0  0  0  0  0  0
    2.0028   -0.7456   -0.7940 N   0  0  0  0  0  0  0  0  0  0  0  0
    0.4472   -1.6898   -2.4183 C   0  0  0  0  0  0  0  0  0  0  0  0
    0.8792   -2.0513   -3.6592 F   0  0  0  0  0  0  0  0  0  0  0  0
    0.5356   -2.7735   -1.6334 F   0  0  0  0  0  0  0  0  0  0  0  0
   -0.8616   -1.3669   -2.5342 F   0  0  0  0  0  0  0  0  0  0  0  0
    5.5187   -2.6361   -0.2097 C   0  0  0  0  0  0  0  0  0  0  0  0
    5.4693   -3.2152    0.8800 O   0  0  0  0  0  0  0  0  0  0  0  0
    5.2769   -3.4272   -1.4717 C   0  0  0  0  0  0  0  0  0  0  0  0
    6.2013   -4.4039   -1.8924 C   0  0  0  0  0  0  0  0  0  0  0  0
    5.8616   -5.1632   -3.0190 C   0  0  0  0  0  0  0  0  0  0  0  0
    6.7466   -6.0605   -3.5109 F   0  0  0  0  0  0  0  0  0  0  0  0
    4.6563   -5.0117   -3.6962 C   0  0  0  0  0  0  0  0  0  0  0  0
    3.7365   -4.0713   -3.2297 C   0  0  0  0  0  0  0  0  0  0  0  0
    4.0498   -3.2791   -2.1232 C   0  0  0  0  0  0  0  0  0  0  0  0
    7.4689   -4.6370   -1.1502 C   0  0  0  0  0  0  0  0  0  0  0  0
    8.1403   -3.5480   -0.7364 N   0  0  0  0  0  0  0  0  0  0  0  0
    9.2537   -3.7615   -0.0291 C   0  0  0  0  0  0  0  0  0  0  0  0
    9.7143   -5.0440    0.2670 C   0  0  0  0  0  0  0  0  0  0  0  0
    8.9456   -6.1028   -0.2212 C   0  0  0  0  0  0  0  0  0  0  0  0
    7.8271   -5.9119   -0.9268 N   0  0  0  0  0  0  0  0  0  0  0  0
    7.1203   -0.1785   -3.2881 H   0  0  0  0  0  0  0  0  0  0  0  0
    7.9898   -0.4733   -1.7656 H   0  0  0  0  0  0  0  0  0  0  0  0
    7.2844   -1.8256   -2.6449 H   0  0  0  0  0  0  0  0  0  0  0  0
    4.9822   -0.8887   -2.2585 H   0  0  0  0  0  0  0  0  0  0  0  0
    5.6640    0.4770   -1.4190 H   0  0  0  0  0  0  0  0  0  0  0  0
    7.4275    0.8993    0.2075 H   0  0  0  0  0  0  0  0  0  0  0  0
    7.4117    0.6406    1.9577 H   0  0  0  0  0  0  0  0  0  0  0  0
    8.0760   -0.6069    0.8848 H   0  0  0  0  0  0  0  0  0  0  0  0
    4.9366    1.3815    0.4882 H   0  0  0  0  0  0  0  0  0  0  0  0
    4.8425    0.8678    2.1608 H   0  0  0  0  0  0  0  0  0  0  0  0
    3.3571   -1.0239    1.1157 H   0  0  0  0  0  0  0  0  0  0  0  0
    3.3299    2.3487   -0.4464 H   0  0  0  0  0  0  0  0  0  0  0  0
    1.9989    2.7179   -2.5257 H   0  0  0  0  0  0  0  0  0  0  0  0
    4.4575   -5.6294   -4.5665 H   0  0  0  0  0  0  0  0  0  0  0  0
    2.7781   -3.9530   -3.7260 H   0  0  0  0  0  0  0  0  0  0  0  0
    3.3283   -2.5672   -1.7370 H   0  0  0  0  0  0  0  0  0  0  0  0
    9.7934   -2.8767    0.3072 H   0  0  0  0  0  0  0  0  0  0  0  0
   10.6186   -5.2101    0.8440 H   0  0  0  0  0  0  0  0  0  0  0  0
    9.2307   -7.1380   -0.0380 H   0  0  0  0  0  0  0  0  0  0  0  0
  1  2  1  0
  1 35  1  0
  1 36  1  0
  1 37  1  0
  2  3  1  0
  2 38  1  0
  2 39  1  0
  3  4  1  0
  3 20  1  0
  4  5  1  1
  4  6  1  0
  4  7  1  0
  6 40  1  0
  6 41  1  0
  6 42  1  0
  7  8  1  0
  7 43  1  0
  7 44  1  0
  8  9  1  0
  8 45  1  0
  9 10  2  0
  9 15  1  0
 10 11  1  0
 10 46  1  0
 11 12  2  0
 11 47  1  0
 12 13  1  0
 12 14  1  0
 14 15  2  0
 14 16  1  0
 16 17  1  0
 16 18  1  0
 16 19  1  0
 20 21  2  0
 20 22  1  0
 22 23  1  0
 22 28  2  0
 23 24  2  0
 23 29  1  0
 24 25  1  0
 24 26  1  0
 26 27  2  0
 26 48  1  0
 27 28  1  0
 27 49  1  0
 28 50  1  0
 29 30  2  0
 29 34  1  0
 30 31  1  0
 31 32  2  0
 31 51  1  0
 32 33  1  0
 32 52  1  0
 33 34  2  0
 33 53  1  0
M  END
>  <group_name>  (1) 
BRI

>  <molecule_index>  (1) 
00649

>  <conformer_index>  (1) 
06

>  <method>  (1) 
b3lyp-d3bj

>  <basis>  (1) 
dzvp

>  <program>  (1) 
psi4

>  <initial_energy>  (1) 
-1066062.029442312 kilocalorie / mole

>  <final_energy>  (1) 
-1066102.3910208123 kilocalorie / mole

$$$$
