BRI-01545-02
     RDKit          3D

 40 41  0  0  0  0  0  0  0  0999 V2000
    0.3686    8.4984   -2.4117 C   0  0  0  0  0  0  0  0  0  0  0  0
   -0.3770    7.5888   -1.4339 C   0  0  0  0  0  0  0  0  0  0  0  0
   -1.1696    8.4079   -0.4160 C   0  0  0  0  0  0  0  0  0  0  0  0
   -1.2755    6.5707   -2.1393 C   0  0  0  0  0  0  0  0  0  0  0  0
    0.6023    6.8690   -0.5715 O   0  0  0  0  0  0  0  0  0  0  0  0
    1.4857    6.0075   -1.0920 C   0  0  0  0  0  0  0  0  0  0  0  0
    1.6495    5.7480   -2.2668 O   0  0  0  0  0  0  0  0  0  0  0  0
    2.3268    5.3717    0.0223 C   0  0  2  0  0  0  0  0  0  0  0  0
    1.8872    5.6180    0.9944 H   0  0  0  0  0  0  0  0  0  0  0  0
    3.7975    5.8433   -0.0617 C   0  0  0  0  0  0  0  0  0  0  0  0
    4.6052    4.6181    0.3733 C   0  0  0  0  0  0  0  0  0  0  0  0
    3.7127    3.4329    0.0368 C   0  0  0  0  0  0  0  0  0  0  0  0
    4.0508    2.2611   -0.0181 O   0  0  0  0  0  0  0  0  0  0  0  0
    2.4208    3.9189   -0.1556 N   0  0  0  0  0  0  0  0  0  0  0  0
    1.2769    3.1210   -0.3456 C   0  0  0  0  0  0  0  0  0  0  0  0
    1.3411    1.8383   -0.9098 C   0  0  0  0  0  0  0  0  0  0  0  0
    0.1548    1.1306   -1.0953 C   0  0  0  0  0  0  0  0  0  0  0  0
   -1.0488    1.7255   -0.7178 C   0  0  0  0  0  0  0  0  0  0  0  0
   -1.1268    2.9423   -0.1719 N   0  0  0  0  0  0  0  0  0  0  0  0
    0.0069    3.6154    0.0151 C   0  0  0  0  0  0  0  0  0  0  0  0
   -2.3774    1.0218   -0.9051 C   0  0  0  0  0  0  0  0  0  0  0  0
   -3.0262    0.8497    0.2693 F   0  0  0  0  0  0  0  0  0  0  0  0
   -3.2029    1.7205   -1.7191 F   0  0  0  0  0  0  0  0  0  0  0  0
   -2.2160   -0.2078   -1.4583 F   0  0  0  0  0  0  0  0  0  0  0  0
   -0.3563    9.1263   -2.9396 H   0  0  0  0  0  0  0  0  0  0  0  0
    1.0570    9.1571   -1.8726 H   0  0  0  0  0  0  0  0  0  0  0  0
    0.9293    7.9217   -3.1478 H   0  0  0  0  0  0  0  0  0  0  0  0
   -0.5125    9.0946    0.1257 H   0  0  0  0  0  0  0  0  0  0  0  0
   -1.6620    7.7525    0.3082 H   0  0  0  0  0  0  0  0  0  0  0  0
   -1.9373    8.9944   -0.9287 H   0  0  0  0  0  0  0  0  0  0  0  0
   -2.0803    7.1046   -2.6547 H   0  0  0  0  0  0  0  0  0  0  0  0
   -1.7313    5.8877   -1.4165 H   0  0  0  0  0  0  0  0  0  0  0  0
   -0.7218    5.9868   -2.8750 H   0  0  0  0  0  0  0  0  0  0  0  0
    4.0278    6.0934   -1.1000 H   0  0  0  0  0  0  0  0  0  0  0  0
    3.9645    6.7271    0.5563 H   0  0  0  0  0  0  0  0  0  0  0  0
    5.5699    4.5149   -0.1260 H   0  0  0  0  0  0  0  0  0  0  0  0
    4.7857    4.5991    1.4542 H   0  0  0  0  0  0  0  0  0  0  0  0
    2.2937    1.4115   -1.1916 H   0  0  0  0  0  0  0  0  0  0  0  0
    0.1687    0.1393   -1.5344 H   0  0  0  0  0  0  0  0  0  0  0  0
   -0.1008    4.5956    0.4702 H   0  0  0  0  0  0  0  0  0  0  0  0
  1  2  1  0
  1 25  1  0
  1 26  1  0
  1 27  1  0
  2  3  1  0
  2  4  1  0
  2  5  1  0
  3 28  1  0
  3 29  1  0
  3 30  1  0
  4 31  1  0
  4 32  1  0
  4 33  1  0
  5  6  1  0
  6  7  2  0
  6  8  1  0
  8  9  1  1
  8 10  1  0
  8 14  1  0
 10 11  1  0
 10 34  1  0
 10 35  1  0
 11 12  1  0
 11 36  1  0
 11 37  1  0
 12 13  2  0
 12 14  1  0
 14 15  1  0
 15 16  2  0
 15 20  1  0
 16 17  1  0
 16 38  1  0
 17 18  2  0
 17 39  1  0
 18 19  1  0
 18 21  1  0
 19 20  2  0
 20 40  1  0
 21 22  1  0
 21 23  1  0
 21 24  1  0
M  END
>  <group_name>  (1) 
BRI

>  <molecule_index>  (1) 
01545

>  <conformer_index>  (1) 
02

>  <method>  (1) 
b3lyp-d3bj

>  <basis>  (1) 
dzvp

>  <program>  (1) 
psi4

>  <initial_energy>  (1) 
-763503.7471960319 kilocalorie / mole

>  <final_energy>  (1) 
-763579.6598744639 kilocalorie / mole

$$$$
