BRI-00593-01
     RDKit          3D

 36 38  0  0  0  0  0  0  0  0999 V2000
    4.8392    5.1960   -0.8964 C   0  0  0  0  0  0  0  0  0  0  0  0
    3.8619    4.9819   -2.0434 C   0  0  0  0  0  0  0  0  0  0  0  0
    2.6056    4.4296   -1.5696 O   0  0  0  0  0  0  0  0  0  0  0  0
    2.5659    3.1022   -1.3577 C   0  0  0  0  0  0  0  0  0  0  0  0
    3.4714    2.3345   -1.6472 O   0  0  0  0  0  0  0  0  0  0  0  0
    1.2645    2.6414   -0.7974 C   0  0  0  0  0  0  0  0  0  0  0  0
    0.3644    3.3611    0.0095 C   0  0  0  0  0  0  0  0  0  0  0  0
   -0.8031    2.8782    0.4231 N   0  0  0  0  0  0  0  0  0  0  0  0
   -1.1804    1.6348    0.0608 C   0  0  0  0  0  0  0  0  0  0  0  0
   -0.3148    0.7964   -0.6896 C   0  0  0  0  0  0  0  0  0  0  0  0
    0.8938    1.3155   -1.1041 C   0  0  0  0  0  0  0  0  0  0  0  0
   -2.4152    1.2335    0.4648 N   0  0  0  0  0  0  0  0  0  0  0  0
   -2.9143   -0.1336    0.2982 C   0  0  0  0  0  0  0  0  0  0  0  0
   -4.3478   -0.0637    0.7897 C   0  0  2  0  0  0  0  0  0  0  0  0
   -5.2303    0.9851    0.1500 C   0  0  0  0  0  0  0  0  0  0  0  0
   -4.5420    1.2801    1.4631 C   0  0  2  0  0  0  0  0  0  0  0  0
   -3.2300    2.0369    1.3900 C   0  0  0  0  0  0  0  0  0  0  0  0
    0.6561    4.7623    0.5642 C   0  0  0  0  0  0  0  0  0  0  0  0
    0.4674    5.7277   -0.3662 F   0  0  0  0  0  0  0  0  0  0  0  0
   -0.1485    5.0590    1.6026 F   0  0  0  0  0  0  0  0  0  0  0  0
    1.9301    4.8656    1.0215 F   0  0  0  0  0  0  0  0  0  0  0  0
    5.7442    5.6840   -1.2750 H   0  0  0  0  0  0  0  0  0  0  0  0
    5.1262    4.2423   -0.4471 H   0  0  0  0  0  0  0  0  0  0  0  0
    4.3970    5.8331   -0.1257 H   0  0  0  0  0  0  0  0  0  0  0  0
    4.2752    4.3155   -2.8035 H   0  0  0  0  0  0  0  0  0  0  0  0
    3.5740    5.9279   -2.5056 H   0  0  0  0  0  0  0  0  0  0  0  0
   -0.5880   -0.2243   -0.9307 H   0  0  0  0  0  0  0  0  0  0  0  0
    1.5882    0.7125   -1.6808 H   0  0  0  0  0  0  0  0  0  0  0  0
   -2.3316   -0.8492    0.8976 H   0  0  0  0  0  0  0  0  0  0  0  0
   -2.8477   -0.4382   -0.7531 H   0  0  0  0  0  0  0  0  0  0  0  0
   -4.7957   -0.9681    1.1882 H   0  0  0  0  0  0  0  0  0  0  0  0
   -4.8672    1.4877   -0.7439 H   0  0  0  0  0  0  0  0  0  0  0  0
   -6.3023    0.8148    0.1742 H   0  0  0  0  0  0  0  0  0  0  0  0
   -5.1373    1.3742    2.3653 H   0  0  0  0  0  0  0  0  0  0  0  0
   -2.7510    2.0999    2.3759 H   0  0  0  0  0  0  0  0  0  0  0  0
   -3.3295    3.0556    1.0076 H   0  0  0  0  0  0  0  0  0  0  0  0
  1  2  1  0
  1 22  1  0
  1 23  1  0
  1 24  1  0
  2  3  1  0
  2 25  1  0
  2 26  1  0
  3  4  1  0
  4  5  2  0
  4  6  1  0
  6  7  2  0
  6 11  1  0
  7  8  1  0
  7 18  1  0
  8  9  2  0
  9 10  1  0
  9 12  1  0
 10 11  2  0
 10 27  1  0
 11 28  1  0
 12 13  1  0
 12 17  1  0
 13 14  1  0
 13 29  1  0
 13 30  1  0
 14 15  1  0
 14 16  1  0
 14 31  1  1
 15 16  1  0
 15 32  1  0
 15 33  1  0
 16 17  1  0
 16 34  1  1
 17 35  1  0
 17 36  1  0
 18 19  1  0
 18 20  1  0
 18 21  1  0
M  END
>  <group_name>  (1) 
BRI

>  <molecule_index>  (1) 
00593

>  <conformer_index>  (1) 
01

>  <method>  (1) 
b3lyp-d3bj

>  <basis>  (1) 
dzvp

>  <program>  (1) 
psi4

>  <initial_energy>  (1) 
-691610.1990631704 kilocalorie / mole

>  <final_energy>  (1) 
-691654.2431991734 kilocalorie / mole

$$$$
