BRI-01456-07
     RDKit          3D

 42 42  0  0  0  0  0  0  0  0999 V2000
   -0.9736    5.3842    1.9124 C   0  0  0  0  0  0  0  0  0  0  0  0
   -1.5616    4.0136    2.2789 C   0  0  0  0  0  0  0  0  0  0  0  0
   -2.0622    4.0027    3.7301 C   0  0  0  0  0  0  0  0  0  0  0  0
   -2.7017    3.5986    1.3313 C   0  0  0  0  0  0  0  0  0  0  0  0
   -2.3222    3.5201   -0.1615 C   0  0  2  0  0  0  0  0  0  0  0  0
   -3.4922    3.0211   -1.0356 C   0  0  0  0  0  0  0  0  0  0  0  0
   -4.7386    3.9112   -1.0732 C   0  0  2  0  0  0  0  0  0  0  0  0
   -5.9210    3.1832   -1.7486 C   0  0  0  0  0  0  0  0  0  0  0  0
   -7.1057    3.8663   -1.7384 N   0  0  0  0  0  0  0  0  0  0  0  0
   -5.8022    2.0367   -2.1693 O   0  0  0  0  0  0  0  0  0  0  0  0
   -4.3349    5.5202   -1.9434 S   0  0  0  0  0  0  0  0  0  0  0  0
   -3.8388    6.2245   -0.4732 O   0  0  0  0  0  0  0  0  0  0  0  0
   -5.6271    6.1642   -2.3422 O   0  0  0  0  0  0  0  0  0  0  0  0
   -1.1091    2.6376   -0.3779 C   0  0  0  0  0  0  0  0  0  0  0  0
   -0.0037    3.2406   -0.8344 N   0  0  0  0  0  0  0  0  0  0  0  0
    1.0966    2.5024   -1.0185 C   0  0  0  0  0  0  0  0  0  0  0  0
    1.1756    1.1351   -0.7696 C   0  0  0  0  0  0  0  0  0  0  0  0
    0.0195    0.5033   -0.2965 C   0  0  0  0  0  0  0  0  0  0  0  0
   -1.1309    1.2591   -0.0980 C   0  0  0  0  0  0  0  0  0  0  0  0
    2.2959    3.2821   -1.5265 C   0  0  0  0  0  0  0  0  0  0  0  0
    3.3756    2.4788   -1.7039 F   0  0  0  0  0  0  0  0  0  0  0  0
    2.0396    3.8770   -2.7132 F   0  0  0  0  0  0  0  0  0  0  0  0
    2.6592    4.2548   -0.6585 F   0  0  0  0  0  0  0  0  0  0  0  0
   -1.7596    6.1497    1.8982 H   0  0  0  0  0  0  0  0  0  0  0  0
   -0.2215    5.6907    2.6474 H   0  0  0  0  0  0  0  0  0  0  0  0
   -0.4884    5.3702    0.9324 H   0  0  0  0  0  0  0  0  0  0  0  0
   -0.7580    3.2696    2.1972 H   0  0  0  0  0  0  0  0  0  0  0  0
   -2.4635    3.0214    4.0086 H   0  0  0  0  0  0  0  0  0  0  0  0
   -1.2534    4.2447    4.4281 H   0  0  0  0  0  0  0  0  0  0  0  0
   -2.8590    4.7426    3.8748 H   0  0  0  0  0  0  0  0  0  0  0  0
   -3.5189    4.3194    1.4450 H   0  0  0  0  0  0  0  0  0  0  0  0
   -3.0962    2.6244    1.6516 H   0  0  0  0  0  0  0  0  0  0  0  0
   -2.0198    4.5132   -0.4939 H   0  0  0  0  0  0  0  0  0  0  0  0
   -3.1461    2.8601   -2.0620 H   0  0  0  0  0  0  0  0  0  0  0  0
   -3.8264    2.0402   -0.6874 H   0  0  0  0  0  0  0  0  0  0  0  0
   -5.0595    4.2363   -0.0800 H   0  0  0  0  0  0  0  0  0  0  0  0
   -7.0572    4.8849   -1.7561 H   0  0  0  0  0  0  0  0  0  0  0  0
   -7.8374    3.4429   -2.2996 H   0  0  0  0  0  0  0  0  0  0  0  0
   -3.3400    7.0360   -0.6869 H   0  0  0  0  0  0  0  0  0  0  0  0
    2.0962    0.5880   -0.9374 H   0  0  0  0  0  0  0  0  0  0  0  0
    0.0238   -0.5629   -0.0869 H   0  0  0  0  0  0  0  0  0  0  0  0
   -2.0386    0.7923    0.2727 H   0  0  0  0  0  0  0  0  0  0  0  0
  1  2  1  0
  1 24  1  0
  1 25  1  0
  1 26  1  0
  2  3  1  0
  2  4  1  0
  2 27  1  0
  3 28  1  0
  3 29  1  0
  3 30  1  0
  4  5  1  0
  4 31  1  0
  4 32  1  0
  5  6  1  0
  5 14  1  0
  5 33  1  6
  6  7  1  0
  6 34  1  0
  6 35  1  0
  7  8  1  0
  7 11  1  0
  7 36  1  1
  8  9  1  0
  8 10  2  0
  9 37  1  0
  9 38  1  0
 11 12  1  1
 11 13  2  0
 12 39  1  0
 14 15  2  0
 14 19  1  0
 15 16  1  0
 16 17  2  0
 16 20  1  0
 17 18  1  0
 17 40  1  0
 18 19  2  0
 18 41  1  0
 19 42  1  0
 20 21  1  0
 20 22  1  0
 20 23  1  0
M  END
>  <group_name>  (1) 
BRI

>  <molecule_index>  (1) 
01456

>  <conformer_index>  (1) 
07

>  <method>  (1) 
b3lyp-d3bj

>  <basis>  (1) 
dzvp

>  <program>  (1) 
psi4

>  <initial_energy>  (1) 
-990192.7626939628 kilocalorie / mole

>  <final_energy>  (1) 
-990239.5713621353 kilocalorie / mole

$$$$
