BRI-01231-03
     RDKit          3D

 32 33  0  0  0  0  0  0  0  0999 V2000
   -4.4265    0.3101   -0.2724 C   0  0  0  0  0  0  0  0  0  0  0  0
   -3.1440    0.1093    0.3294 O   0  0  0  0  0  0  0  0  0  0  0  0
   -2.5649   -1.1113    0.2039 C   0  0  0  0  0  0  0  0  0  0  0  0
   -1.2820   -1.2498    0.7837 C   0  0  0  0  0  0  0  0  0  0  0  0
   -0.7165   -0.2008    1.4845 O   0  0  0  0  0  0  0  0  0  0  0  0
   -0.3942    0.9535    0.8096 C   0  0  0  0  0  0  0  0  0  0  0  0
   -0.1593    2.0907    1.5994 C   0  0  0  0  0  0  0  0  0  0  0  0
    0.1932    3.2633    1.0814 N   0  0  0  0  0  0  0  0  0  0  0  0
    0.3237    3.3499   -0.2485 C   0  0  0  0  0  0  0  0  0  0  0  0
    0.1166    2.2781   -1.1149 C   0  0  0  0  0  0  0  0  0  0  0  0
   -0.2505    1.0440   -0.5733 C   0  0  0  0  0  0  0  0  0  0  0  0
    0.7214    4.7177   -0.7638 C   0  0  0  0  0  0  0  0  0  0  0  0
    1.9170    5.1122   -0.2702 F   0  0  0  0  0  0  0  0  0  0  0  0
    0.8243    4.7264   -2.1192 F   0  0  0  0  0  0  0  0  0  0  0  0
   -0.1839    5.6641   -0.4265 F   0  0  0  0  0  0  0  0  0  0  0  0
   -0.6000   -2.4571    0.7202 C   0  0  0  0  0  0  0  0  0  0  0  0
   -1.1802   -3.5598    0.0847 C   0  0  0  0  0  0  0  0  0  0  0  0
   -2.4474   -3.4357   -0.4964 C   0  0  0  0  0  0  0  0  0  0  0  0
   -3.1284   -2.2082   -0.4475 C   0  0  0  0  0  0  0  0  0  0  0  0
   -3.1332   -4.5571   -1.2194 C   0  0  0  0  0  0  0  0  0  0  0  0
   -2.7158   -5.8231   -0.9333 O   0  0  0  0  0  0  0  0  0  0  0  0
   -4.0220   -4.3821   -2.0244 O   0  0  0  0  0  0  0  0  0  0  0  0
   -5.1758   -0.3560    0.1695 H   0  0  0  0  0  0  0  0  0  0  0  0
   -4.6881    1.3470   -0.0633 H   0  0  0  0  0  0  0  0  0  0  0  0
   -4.3819    0.1520   -1.3556 H   0  0  0  0  0  0  0  0  0  0  0  0
   -0.2677    2.0241    2.6800 H   0  0  0  0  0  0  0  0  0  0  0  0
    0.2395    2.3983   -2.1854 H   0  0  0  0  0  0  0  0  0  0  0  0
   -0.4186    0.1834   -1.2126 H   0  0  0  0  0  0  0  0  0  0  0  0
    0.3869   -2.5181    1.1684 H   0  0  0  0  0  0  0  0  0  0  0  0
   -0.6056   -4.4797    0.0129 H   0  0  0  0  0  0  0  0  0  0  0  0
   -4.1004   -2.1490   -0.9218 H   0  0  0  0  0  0  0  0  0  0  0  0
   -2.1177   -5.8154   -0.1676 H   0  0  0  0  0  0  0  0  0  0  0  0
  1  2  1  0
  1 23  1  0
  1 24  1  0
  1 25  1  0
  2  3  1  0
  3  4  2  0
  3 19  1  0
  4  5  1  0
  4 16  1  0
  5  6  1  0
  6  7  2  0
  6 11  1  0
  7  8  1  0
  7 26  1  0
  8  9  2  0
  9 10  1  0
  9 12  1  0
 10 11  2  0
 10 27  1  0
 11 28  1  0
 12 13  1  0
 12 14  1  0
 12 15  1  0
 16 17  2  0
 16 29  1  0
 17 18  1  0
 17 30  1  0
 18 19  2  0
 18 20  1  0
 19 31  1  0
 20 21  1  0
 20 22  2  0
 21 32  1  0
M  END
>  <group_name>  (1) 
BRI

>  <molecule_index>  (1) 
01231

>  <conformer_index>  (1) 
03

>  <method>  (1) 
b3lyp-d3bj

>  <basis>  (1) 
dzvp

>  <program>  (1) 
psi4

>  <initial_energy>  (1) 
-749778.0283645273 kilocalorie / mole

>  <final_energy>  (1) 
-749823.2826491963 kilocalorie / mole

$$$$
