BRI-01545-01
     RDKit          3D

 40 41  0  0  0  0  0  0  0  0999 V2000
   -1.4062    7.0262   -0.8410 C   0  0  0  0  0  0  0  0  0  0  0  0
   -0.0882    7.2800   -1.5748 C   0  0  0  0  0  0  0  0  0  0  0  0
    0.4031    8.7208   -1.4303 C   0  0  0  0  0  0  0  0  0  0  0  0
   -0.1909    6.8738   -3.0442 C   0  0  0  0  0  0  0  0  0  0  0  0
    0.9496    6.3465   -1.0599 O   0  0  0  0  0  0  0  0  0  0  0  0
    1.3103    6.3302    0.2266 C   0  0  0  0  0  0  0  0  0  0  0  0
    0.9372    7.0857    1.1042 O   0  0  0  0  0  0  0  0  0  0  0  0
    2.3399    5.2250    0.5018 C   0  0  2  0  0  0  0  0  0  0  0  0
    2.1807    4.8999    1.5315 H   0  0  0  0  0  0  0  0  0  0  0  0
    3.7784    5.7555    0.2992 C   0  0  0  0  0  0  0  0  0  0  0  0
    4.0912    5.3938   -1.1541 C   0  0  0  0  0  0  0  0  0  0  0  0
    3.2165    4.1828   -1.4418 C   0  0  0  0  0  0  0  0  0  0  0  0
    3.3236    3.4293   -2.3961 O   0  0  0  0  0  0  0  0  0  0  0  0
    2.2588    4.0962   -0.4272 N   0  0  0  0  0  0  0  0  0  0  0  0
    1.1605    3.2182   -0.4154 C   0  0  0  0  0  0  0  0  0  0  0  0
    1.0833    2.0892   -1.2488 C   0  0  0  0  0  0  0  0  0  0  0  0
   -0.0442    1.2738   -1.1730 C   0  0  0  0  0  0  0  0  0  0  0  0
   -1.0553    1.6047   -0.2725 C   0  0  0  0  0  0  0  0  0  0  0  0
   -0.9969    2.6691    0.5319 N   0  0  0  0  0  0  0  0  0  0  0  0
    0.0786    3.4504    0.4635 C   0  0  0  0  0  0  0  0  0  0  0  0
   -2.3137    0.7711   -0.1439 C   0  0  0  0  0  0  0  0  0  0  0  0
   -2.2798   -0.3095   -0.9665 F   0  0  0  0  0  0  0  0  0  0  0  0
   -2.4862    0.3105    1.1152 F   0  0  0  0  0  0  0  0  0  0  0  0
   -3.4202    1.4820   -0.4658 F   0  0  0  0  0  0  0  0  0  0  0  0
   -2.2016    7.5994   -1.3276 H   0  0  0  0  0  0  0  0  0  0  0  0
   -1.6735    5.9663   -0.8897 H   0  0  0  0  0  0  0  0  0  0  0  0
   -1.3504    7.3310    0.2046 H   0  0  0  0  0  0  0  0  0  0  0  0
   -0.3033    9.3930   -1.9276 H   0  0  0  0  0  0  0  0  0  0  0  0
    1.3793    8.8418   -1.9110 H   0  0  0  0  0  0  0  0  0  0  0  0
    0.4825    9.0131   -0.3826 H   0  0  0  0  0  0  0  0  0  0  0  0
   -0.9348    7.4953   -3.5507 H   0  0  0  0  0  0  0  0  0  0  0  0
    0.7708    7.0016   -3.5498 H   0  0  0  0  0  0  0  0  0  0  0  0
   -0.4921    5.8265   -3.1342 H   0  0  0  0  0  0  0  0  0  0  0  0
    3.8480    6.8215    0.5218 H   0  0  0  0  0  0  0  0  0  0  0  0
    4.4477    5.2228    0.9800 H   0  0  0  0  0  0  0  0  0  0  0  0
    5.1379    5.1530   -1.3466 H   0  0  0  0  0  0  0  0  0  0  0  0
    3.7935    6.1843   -1.8510 H   0  0  0  0  0  0  0  0  0  0  0  0
    1.8826    1.8677   -1.9414 H   0  0  0  0  0  0  0  0  0  0  0  0
   -0.1293    0.3966   -1.8046 H   0  0  0  0  0  0  0  0  0  0  0  0
    0.0740    4.2990    1.1413 H   0  0  0  0  0  0  0  0  0  0  0  0
  1  2  1  0
  1 25  1  0
  1 26  1  0
  1 27  1  0
  2  3  1  0
  2  4  1  0
  2  5  1  0
  3 28  1  0
  3 29  1  0
  3 30  1  0
  4 31  1  0
  4 32  1  0
  4 33  1  0
  5  6  1  0
  6  7  2  0
  6  8  1  0
  8  9  1  1
  8 10  1  0
  8 14  1  0
 10 11  1  0
 10 34  1  0
 10 35  1  0
 11 12  1  0
 11 36  1  0
 11 37  1  0
 12 13  2  0
 12 14  1  0
 14 15  1  0
 15 16  2  0
 15 20  1  0
 16 17  1  0
 16 38  1  0
 17 18  2  0
 17 39  1  0
 18 19  1  0
 18 21  1  0
 19 20  2  0
 20 40  1  0
 21 22  1  0
 21 23  1  0
 21 24  1  0
M  END
>  <group_name>  (1) 
BRI

>  <molecule_index>  (1) 
01545

>  <conformer_index>  (1) 
01

>  <method>  (1) 
b3lyp-d3bj

>  <basis>  (1) 
dzvp

>  <program>  (1) 
psi4

>  <initial_energy>  (1) 
-763520.5393407199 kilocalorie / mole

>  <final_energy>  (1) 
-763581.0893005877 kilocalorie / mole

$$$$
