BRI-01456-02
     RDKit          3D

 42 42  0  0  0  0  0  0  0  0999 V2000
   -1.9216    5.9940    2.6162 C   0  0  0  0  0  0  0  0  0  0  0  0
   -2.5737    4.6526    2.9803 C   0  0  0  0  0  0  0  0  0  0  0  0
   -2.4928    4.3967    4.4927 C   0  0  0  0  0  0  0  0  0  0  0  0
   -1.9392    3.4659    2.2283 C   0  0  0  0  0  0  0  0  0  0  0  0
   -1.9865    3.5429    0.6918 C   0  0  2  0  0  0  0  0  0  0  0  0
   -3.4381    3.3788    0.1732 C   0  0  0  0  0  0  0  0  0  0  0  0
   -3.6133    3.7583   -1.2983 C   0  0  2  0  0  0  0  0  0  0  0  0
   -3.5279    5.2786   -1.5153 C   0  0  0  0  0  0  0  0  0  0  0  0
   -3.4779    5.6792   -2.8160 N   0  0  0  0  0  0  0  0  0  0  0  0
   -3.4573    6.0532   -0.5658 O   0  0  0  0  0  0  0  0  0  0  0  0
   -5.2689    3.0891   -1.8204 S   0  0  0  0  0  0  0  0  0  0  0  0
   -4.8869    3.2740   -3.4964 O   0  0  0  0  0  0  0  0  0  0  0  0
   -6.3120    4.0853   -1.4489 O   0  0  0  0  0  0  0  0  0  0  0  0
   -1.0804    2.5316    0.0154 C   0  0  0  0  0  0  0  0  0  0  0  0
   -0.6497    2.8616   -1.2133 N   0  0  0  0  0  0  0  0  0  0  0  0
    0.1209    1.9992   -1.8808 C   0  0  0  0  0  0  0  0  0  0  0  0
    0.5250    0.7615   -1.3860 C   0  0  0  0  0  0  0  0  0  0  0  0
    0.0782    0.4122   -0.1079 C   0  0  0  0  0  0  0  0  0  0  0  0
   -0.7326    1.2989    0.5968 C   0  0  0  0  0  0  0  0  0  0  0  0
    0.5322    2.4703   -3.2643 C   0  0  0  0  0  0  0  0  0  0  0  0
    1.2860    1.5410   -3.9052 F   0  0  0  0  0  0  0  0  0  0  0  0
   -0.5492    2.7139   -4.0428 F   0  0  0  0  0  0  0  0  0  0  0  0
    1.2564    3.6087   -3.2126 F   0  0  0  0  0  0  0  0  0  0  0  0
   -0.8365    5.9563    2.7785 H   0  0  0  0  0  0  0  0  0  0  0  0
   -2.1109    6.2703    1.5764 H   0  0  0  0  0  0  0  0  0  0  0  0
   -2.3226    6.7963    3.2454 H   0  0  0  0  0  0  0  0  0  0  0  0
   -3.6357    4.7136    2.7123 H   0  0  0  0  0  0  0  0  0  0  0  0
   -1.4486    4.3494    4.8264 H   0  0  0  0  0  0  0  0  0  0  0  0
   -2.9836    5.1993    5.0533 H   0  0  0  0  0  0  0  0  0  0  0  0
   -2.9752    3.4516    4.7685 H   0  0  0  0  0  0  0  0  0  0  0  0
   -2.4296    2.5425    2.5659 H   0  0  0  0  0  0  0  0  0  0  0  0
   -0.8890    3.3900    2.5415 H   0  0  0  0  0  0  0  0  0  0  0  0
   -1.6330    4.5255    0.3759 H   0  0  0  0  0  0  0  0  0  0  0  0
   -3.7474    2.3365    0.3288 H   0  0  0  0  0  0  0  0  0  0  0  0
   -4.0991    4.0130    0.7662 H   0  0  0  0  0  0  0  0  0  0  0  0
   -2.8959    3.2459   -1.9432 H   0  0  0  0  0  0  0  0  0  0  0  0
   -3.5722    6.6746   -2.9785 H   0  0  0  0  0  0  0  0  0  0  0  0
   -3.7888    5.0440   -3.5436 H   0  0  0  0  0  0  0  0  0  0  0  0
   -5.6400    2.9208   -4.0062 H   0  0  0  0  0  0  0  0  0  0  0  0
    1.1573    0.1032   -1.9706 H   0  0  0  0  0  0  0  0  0  0  0  0
    0.3609   -0.5415    0.3296 H   0  0  0  0  0  0  0  0  0  0  0  0
   -1.0876    1.0425    1.5888 H   0  0  0  0  0  0  0  0  0  0  0  0
  1  2  1  0
  1 24  1  0
  1 25  1  0
  1 26  1  0
  2  3  1  0
  2  4  1  0
  2 27  1  0
  3 28  1  0
  3 29  1  0
  3 30  1  0
  4  5  1  0
  4 31  1  0
  4 32  1  0
  5  6  1  0
  5 14  1  0
  5 33  1  1
  6  7  1  0
  6 34  1  0
  6 35  1  0
  7  8  1  0
  7 11  1  0
  7 36  1  6
  8  9  1  0
  8 10  2  0
  9 37  1  0
  9 38  1  0
 11 12  1  6
 11 13  2  0
 12 39  1  0
 14 15  2  0
 14 19  1  0
 15 16  1  0
 16 17  2  0
 16 20  1  0
 17 18  1  0
 17 40  1  0
 18 19  2  0
 18 41  1  0
 19 42  1  0
 20 21  1  0
 20 22  1  0
 20 23  1  0
M  END
>  <group_name>  (1) 
BRI

>  <molecule_index>  (1) 
01456

>  <conformer_index>  (1) 
02

>  <method>  (1) 
b3lyp-d3bj

>  <basis>  (1) 
dzvp

>  <program>  (1) 
psi4

>  <initial_energy>  (1) 
-990171.2023785127 kilocalorie / mole

>  <final_energy>  (1) 
-990239.6651741116 kilocalorie / mole

$$$$
