BRI-00638-01
     RDKit          3D

 45 45  0  0  0  0  0  0  0  0999 V2000
   -3.4263    7.5009    2.4384 C   0  0  0  0  0  0  0  0  0  0  0  0
   -2.2203    7.3880    1.5080 C   0  0  0  0  0  0  0  0  0  0  0  0
   -2.5493    6.7615    0.2629 O   0  0  0  0  0  0  0  0  0  0  0  0
   -2.5289    5.3421    0.2881 C   0  0  0  0  0  0  0  0  0  0  0  0
   -1.1285    4.8081   -0.0313 C   0  0  0  0  0  0  0  0  0  0  0  0
   -1.1735    3.3320    0.0383 N   0  0  0  0  0  0  0  0  0  0  0  0
    0.2304    2.5611   -0.4894 S   0  0  0  0  0  0  0  0  0  0  0  0
    1.3053    2.5788    0.5130 O   0  0  0  0  0  0  0  0  0  0  0  0
    0.4965    3.0850   -1.8359 O   0  0  0  0  0  0  0  0  0  0  0  0
   -0.3059    0.7609   -0.6945 C   0  0  0  0  0  0  0  0  0  0  0  0
    0.8985    0.1320   -1.4132 C   0  0  0  0  0  0  0  0  0  0  0  0
   -1.5760    0.7520   -1.5559 C   0  0  0  0  0  0  0  0  0  0  0  0
   -0.5889    0.2606    0.7377 C   0  0  0  0  0  0  0  0  0  0  0  0
   -1.1943    0.9755    1.5356 O   0  0  0  0  0  0  0  0  0  0  0  0
   -0.0876   -0.9418    1.1965 N   0  0  0  0  0  0  0  0  0  0  0  0
    0.2453   -2.1576    0.5719 C   0  0  0  0  0  0  0  0  0  0  0  0
   -0.4562   -2.6543   -0.5404 C   0  0  0  0  0  0  0  0  0  0  0  0
   -0.0687   -3.8790   -1.0714 C   0  0  0  0  0  0  0  0  0  0  0  0
    0.9698   -4.5956   -0.4643 C   0  0  0  0  0  0  0  0  0  0  0  0
    1.5519   -4.0340    0.6693 C   0  0  0  0  0  0  0  0  0  0  0  0
    1.2135   -2.8459    1.1771 N   0  0  0  0  0  0  0  0  0  0  0  0
    2.6497   -4.7551    1.4351 C   0  0  0  0  0  0  0  0  0  0  0  0
    2.2848   -4.9866    2.7148 F   0  0  0  0  0  0  0  0  0  0  0  0
    2.9373   -5.9549    0.8717 F   0  0  0  0  0  0  0  0  0  0  0  0
    3.7910   -4.0357    1.4593 F   0  0  0  0  0  0  0  0  0  0  0  0
   -4.2320    8.0567    1.9496 H   0  0  0  0  0  0  0  0  0  0  0  0
   -3.1470    8.0281    3.3579 H   0  0  0  0  0  0  0  0  0  0  0  0
   -3.8122    6.5161    2.7214 H   0  0  0  0  0  0  0  0  0  0  0  0
   -1.3980    6.8532    2.0037 H   0  0  0  0  0  0  0  0  0  0  0  0
   -1.8495    8.3832    1.2452 H   0  0  0  0  0  0  0  0  0  0  0  0
   -3.2335    4.9944   -0.4724 H   0  0  0  0  0  0  0  0  0  0  0  0
   -2.8713    4.9551    1.2593 H   0  0  0  0  0  0  0  0  0  0  0  0
   -0.3896    5.2308    0.6608 H   0  0  0  0  0  0  0  0  0  0  0  0
   -0.8520    5.0969   -1.0459 H   0  0  0  0  0  0  0  0  0  0  0  0
   -1.3832    2.9692    0.9705 H   0  0  0  0  0  0  0  0  0  0  0  0
    1.1806    0.7614   -2.2600 H   0  0  0  0  0  0  0  0  0  0  0  0
    0.6460   -0.8511   -1.8081 H   0  0  0  0  0  0  0  0  0  0  0  0
    1.7597    0.0381   -0.7488 H   0  0  0  0  0  0  0  0  0  0  0  0
   -1.3911    1.3012   -2.4824 H   0  0  0  0  0  0  0  0  0  0  0  0
   -1.8447   -0.2749   -1.8205 H   0  0  0  0  0  0  0  0  0  0  0  0
   -2.4123    1.2170   -1.0331 H   0  0  0  0  0  0  0  0  0  0  0  0
   -0.0569   -0.9773    2.2127 H   0  0  0  0  0  0  0  0  0  0  0  0
   -1.2969   -2.1082   -0.9505 H   0  0  0  0  0  0  0  0  0  0  0  0
   -0.5861   -4.2864   -1.9352 H   0  0  0  0  0  0  0  0  0  0  0  0
    1.2944   -5.5583   -0.8407 H   0  0  0  0  0  0  0  0  0  0  0  0
  1  2  1  0
  1 26  1  0
  1 27  1  0
  1 28  1  0
  2  3  1  0
  2 29  1  0
  2 30  1  0
  3  4  1  0
  4  5  1  0
  4 31  1  0
  4 32  1  0
  5  6  1  0
  5 33  1  0
  5 34  1  0
  6  7  1  0
  6 35  1  0
  7  8  2  0
  7  9  2  0
  7 10  1  0
 10 11  1  0
 10 12  1  0
 10 13  1  0
 11 36  1  0
 11 37  1  0
 11 38  1  0
 12 39  1  0
 12 40  1  0
 12 41  1  0
 13 14  2  0
 13 15  1  0
 15 16  1  0
 15 42  1  0
 16 17  2  0
 16 21  1  0
 17 18  1  0
 17 43  1  0
 18 19  2  0
 18 44  1  0
 19 20  1  0
 19 45  1  0
 20 21  2  0
 20 22  1  0
 22 23  1  0
 22 24  1  0
 22 25  1  0
M  END
>  <group_name>  (1) 
BRI

>  <molecule_index>  (1) 
00638

>  <conformer_index>  (1) 
01

>  <method>  (1) 
b3lyp-d3bj

>  <basis>  (1) 
dzvp

>  <program>  (1) 
psi4

>  <initial_energy>  (1) 
-1071942.5461294737 kilocalorie / mole

>  <final_energy>  (1) 
-1072163.566848444 kilocalorie / mole

$$$$
