BRI-01545-09
     RDKit          3D

 40 41  0  0  0  0  0  0  0  0999 V2000
    1.0444    8.3011   -3.0230 C   0  0  0  0  0  0  0  0  0  0  0  0
    0.0832    7.7337   -1.9773 C   0  0  0  0  0  0  0  0  0  0  0  0
   -1.0199    6.8717   -2.5942 C   0  0  0  0  0  0  0  0  0  0  0  0
   -0.5086    8.8459   -1.1124 C   0  0  0  0  0  0  0  0  0  0  0  0
    0.8464    6.9268   -0.9841 O   0  0  0  0  0  0  0  0  0  0  0  0
    1.5134    5.8233   -1.3464 C   0  0  0  0  0  0  0  0  0  0  0  0
    1.6067    5.3588   -2.4658 O   0  0  0  0  0  0  0  0  0  0  0  0
    2.2193    5.2090   -0.1292 C   0  0  2  0  0  0  0  0  0  0  0  0
    1.7571    5.5807    0.7864 H   0  0  0  0  0  0  0  0  0  0  0  0
    3.7317    5.5315   -0.1726 C   0  0  0  0  0  0  0  0  0  0  0  0
    4.3288    4.3516   -0.9434 C   0  0  0  0  0  0  0  0  0  0  0  0
    3.3637    3.2044   -0.6874 C   0  0  0  0  0  0  0  0  0  0  0  0
    3.5813    2.0206   -0.8884 O   0  0  0  0  0  0  0  0  0  0  0  0
    2.1782    3.7480   -0.1825 N   0  0  0  0  0  0  0  0  0  0  0  0
    0.9818    3.0464    0.0489 C   0  0  0  0  0  0  0  0  0  0  0  0
    0.9116    1.6426    0.0566 C   0  0  0  0  0  0  0  0  0  0  0  0
   -0.3165    1.0337    0.3077 C   0  0  0  0  0  0  0  0  0  0  0  0
   -1.4316    1.8357    0.5452 C   0  0  0  0  0  0  0  0  0  0  0  0
   -1.3849    3.1704    0.5412 N   0  0  0  0  0  0  0  0  0  0  0  0
   -0.2144    3.7563    0.2987 C   0  0  0  0  0  0  0  0  0  0  0  0
   -2.7956    1.2422    0.8315 C   0  0  0  0  0  0  0  0  0  0  0  0
   -2.7610   -0.1156    0.8112 F   0  0  0  0  0  0  0  0  0  0  0  0
   -3.2580    1.6112    2.0491 F   0  0  0  0  0  0  0  0  0  0  0  0
   -3.7164    1.6323   -0.0798 F   0  0  0  0  0  0  0  0  0  0  0  0
    0.5016    9.0001   -3.6671 H   0  0  0  0  0  0  0  0  0  0  0  0
    1.4686    7.5136   -3.6467 H   0  0  0  0  0  0  0  0  0  0  0  0
    1.8568    8.8513   -2.5373 H   0  0  0  0  0  0  0  0  0  0  0  0
   -0.6097    6.0838   -3.2262 H   0  0  0  0  0  0  0  0  0  0  0  0
   -1.6687    7.5068   -3.2058 H   0  0  0  0  0  0  0  0  0  0  0  0
   -1.6341    6.4158   -1.8116 H   0  0  0  0  0  0  0  0  0  0  0  0
   -1.1574    8.4287   -0.3370 H   0  0  0  0  0  0  0  0  0  0  0  0
   -1.1026    9.5227   -1.7332 H   0  0  0  0  0  0  0  0  0  0  0  0
    0.2840    9.4244   -0.6289 H   0  0  0  0  0  0  0  0  0  0  0  0
    4.1138    5.5575    0.8515 H   0  0  0  0  0  0  0  0  0  0  0  0
    3.9259    6.5029   -0.6317 H   0  0  0  0  0  0  0  0  0  0  0  0
    5.3354    4.0701   -0.6303 H   0  0  0  0  0  0  0  0  0  0  0  0
    4.3428    4.5310   -2.0227 H   0  0  0  0  0  0  0  0  0  0  0  0
    1.7960    1.0525   -0.1369 H   0  0  0  0  0  0  0  0  0  0  0  0
   -0.3989   -0.0474    0.3189 H   0  0  0  0  0  0  0  0  0  0  0  0
   -0.2335    4.8419    0.3040 H   0  0  0  0  0  0  0  0  0  0  0  0
  1  2  1  0
  1 25  1  0
  1 26  1  0
  1 27  1  0
  2  3  1  0
  2  4  1  0
  2  5  1  0
  3 28  1  0
  3 29  1  0
  3 30  1  0
  4 31  1  0
  4 32  1  0
  4 33  1  0
  5  6  1  0
  6  7  2  0
  6  8  1  0
  8  9  1  1
  8 10  1  0
  8 14  1  0
 10 11  1  0
 10 34  1  0
 10 35  1  0
 11 12  1  0
 11 36  1  0
 11 37  1  0
 12 13  2  0
 12 14  1  0
 14 15  1  0
 15 16  2  0
 15 20  1  0
 16 17  1  0
 16 38  1  0
 17 18  2  0
 17 39  1  0
 18 19  1  0
 18 21  1  0
 19 20  2  0
 20 40  1  0
 21 22  1  0
 21 23  1  0
 21 24  1  0
M  END
>  <group_name>  (1) 
BRI

>  <molecule_index>  (1) 
01545

>  <conformer_index>  (1) 
09

>  <method>  (1) 
b3lyp-d3bj

>  <basis>  (1) 
dzvp

>  <program>  (1) 
psi4

>  <initial_energy>  (1) 
-763526.0282876868 kilocalorie / mole

>  <final_energy>  (1) 
-763580.6641348219 kilocalorie / mole

$$$$
