BRI-01456-04
     RDKit          3D

 42 42  0  0  0  0  0  0  0  0999 V2000
   -1.8206    4.3565    4.2206 C   0  0  0  0  0  0  0  0  0  0  0  0
   -2.4377    4.4578    2.8178 C   0  0  0  0  0  0  0  0  0  0  0  0
   -2.8226    5.9090    2.4954 C   0  0  0  0  0  0  0  0  0  0  0  0
   -1.4648    3.8617    1.7839 C   0  0  0  0  0  0  0  0  0  0  0  0
   -1.9148    3.9332    0.3091 C   0  0  2  0  0  0  0  0  0  0  0  0
   -3.2547    3.2074    0.0833 C   0  0  0  0  0  0  0  0  0  0  0  0
   -3.7388    3.3275   -1.3707 C   0  0  2  0  0  0  0  0  0  0  0  0
   -3.8921    4.7884   -1.8143 C   0  0  0  0  0  0  0  0  0  0  0  0
   -4.9276    5.4737   -1.2504 N   0  0  0  0  0  0  0  0  0  0  0  0
   -3.0471    5.3023   -2.5428 O   0  0  0  0  0  0  0  0  0  0  0  0
   -5.2930    2.3354   -1.5104 S   0  0  0  0  0  0  0  0  0  0  0  0
   -5.4917    2.7619   -3.1422 O   0  0  0  0  0  0  0  0  0  0  0  0
   -6.3348    3.0514   -0.6963 O   0  0  0  0  0  0  0  0  0  0  0  0
   -0.8396    3.3437   -0.5823 C   0  0  0  0  0  0  0  0  0  0  0  0
   -0.6105    2.0296   -0.4519 N   0  0  0  0  0  0  0  0  0  0  0  0
    0.3355    1.4695   -1.2097 C   0  0  0  0  0  0  0  0  0  0  0  0
    1.1097    2.1645   -2.1371 C   0  0  0  0  0  0  0  0  0  0  0  0
    0.8600    3.5330   -2.2819 C   0  0  0  0  0  0  0  0  0  0  0  0
   -0.1271    4.1294   -1.5013 C   0  0  0  0  0  0  0  0  0  0  0  0
    0.5083   -0.0228   -0.9970 C   0  0  0  0  0  0  0  0  0  0  0  0
    1.4868   -0.5324   -1.7873 F   0  0  0  0  0  0  0  0  0  0  0  0
    0.8347   -0.3134    0.2824 F   0  0  0  0  0  0  0  0  0  0  0  0
   -0.6296   -0.6999   -1.2837 F   0  0  0  0  0  0  0  0  0  0  0  0
   -1.5529    3.3225    4.4648 H   0  0  0  0  0  0  0  0  0  0  0  0
   -2.5187    4.7134    4.9856 H   0  0  0  0  0  0  0  0  0  0  0  0
   -0.9094    4.9630    4.2913 H   0  0  0  0  0  0  0  0  0  0  0  0
   -3.3553    3.8553    2.8217 H   0  0  0  0  0  0  0  0  0  0  0  0
   -3.3759    5.9933    1.5546 H   0  0  0  0  0  0  0  0  0  0  0  0
   -3.4551    6.3274    3.2859 H   0  0  0  0  0  0  0  0  0  0  0  0
   -1.9284    6.5403    2.4167 H   0  0  0  0  0  0  0  0  0  0  0  0
   -0.5039    4.3879    1.8664 H   0  0  0  0  0  0  0  0  0  0  0  0
   -1.2635    2.8135    2.0324 H   0  0  0  0  0  0  0  0  0  0  0  0
   -2.0337    4.9834    0.0304 H   0  0  0  0  0  0  0  0  0  0  0  0
   -4.0173    3.6217    0.7461 H   0  0  0  0  0  0  0  0  0  0  0  0
   -3.1226    2.1503    0.3384 H   0  0  0  0  0  0  0  0  0  0  0  0
   -3.0433    2.8497   -2.0632 H   0  0  0  0  0  0  0  0  0  0  0  0
   -5.7178    4.9466   -0.8764 H   0  0  0  0  0  0  0  0  0  0  0  0
   -5.1028    6.3972   -1.6298 H   0  0  0  0  0  0  0  0  0  0  0  0
   -6.1886    2.1905   -3.5165 H   0  0  0  0  0  0  0  0  0  0  0  0
    1.8652    1.6571   -2.7261 H   0  0  0  0  0  0  0  0  0  0  0  0
    1.4211    4.1197   -3.0040 H   0  0  0  0  0  0  0  0  0  0  0  0
   -0.3721    5.1800   -1.6158 H   0  0  0  0  0  0  0  0  0  0  0  0
  1  2  1  0
  1 24  1  0
  1 25  1  0
  1 26  1  0
  2  3  1  0
  2  4  1  0
  2 27  1  0
  3 28  1  0
  3 29  1  0
  3 30  1  0
  4  5  1  0
  4 31  1  0
  4 32  1  0
  5  6  1  0
  5 14  1  0
  5 33  1  6
  6  7  1  0
  6 34  1  0
  6 35  1  0
  7  8  1  0
  7 11  1  0
  7 36  1  6
  8  9  1  0
  8 10  2  0
  9 37  1  0
  9 38  1  0
 11 12  1  6
 11 13  2  0
 12 39  1  0
 14 15  2  0
 14 19  1  0
 15 16  1  0
 16 17  2  0
 16 20  1  0
 17 18  1  0
 17 40  1  0
 18 19  2  0
 18 41  1  0
 19 42  1  0
 20 21  1  0
 20 22  1  0
 20 23  1  0
M  END
>  <group_name>  (1) 
BRI

>  <molecule_index>  (1) 
01456

>  <conformer_index>  (1) 
04

>  <method>  (1) 
b3lyp-d3bj

>  <basis>  (1) 
dzvp

>  <program>  (1) 
psi4

>  <initial_energy>  (1) 
-990160.034637579 kilocalorie / mole

>  <final_energy>  (1) 
-990244.5128498987 kilocalorie / mole

$$$$
