BRI-00647-01
     RDKit          3D

 40 40  0  0  0  0  0  0  0  0999 V2000
   -2.5900   -2.4156    6.7564 C   0  0  0  0  0  0  0  0  0  0  0  0
   -1.5848   -1.4790    6.0843 C   0  0  0  0  0  0  0  0  0  0  0  0
   -0.3355   -2.2478    5.6459 C   0  0  0  0  0  0  0  0  0  0  0  0
   -1.2514   -0.2959    6.9970 C   0  0  0  0  0  0  0  0  0  0  0  0
   -2.3324   -1.0096    4.8986 O   0  0  0  0  0  0  0  0  0  0  0  0
   -1.7690   -0.1455    4.0263 C   0  0  0  0  0  0  0  0  0  0  0  0
   -0.6438    0.3415    4.0964 O   0  0  0  0  0  0  0  0  0  0  0  0
   -2.6386    0.1271    3.0083 N   0  0  0  0  0  0  0  0  0  0  0  0
   -2.2782    1.0877    1.9901 C   0  0  1  0  0  0  0  0  0  0  0  0
   -1.2839    0.4816    0.9509 C   0  0  0  0  0  0  0  0  0  0  0  0
   -0.5279    1.5203    0.1664 C   0  0  0  0  0  0  0  0  0  0  0  0
   -0.8068    1.7788   -1.1840 C   0  0  0  0  0  0  0  0  0  0  0  0
   -0.1775    2.7018   -1.9140 N   0  0  0  0  0  0  0  0  0  0  0  0
    0.7740    3.4201   -1.3094 C   0  0  0  0  0  0  0  0  0  0  0  0
    1.1444    3.2544    0.0255 C   0  0  0  0  0  0  0  0  0  0  0  0
    0.4766    2.2823    0.7717 C   0  0  0  0  0  0  0  0  0  0  0  0
    1.4502    4.4527   -2.1922 C   0  0  0  0  0  0  0  0  0  0  0  0
    0.5643    5.3483   -2.6831 F   0  0  0  0  0  0  0  0  0  0  0  0
    2.0704    3.8792   -3.2481 F   0  0  0  0  0  0  0  0  0  0  0  0
    2.3911    5.1536   -1.5069 F   0  0  0  0  0  0  0  0  0  0  0  0
   -3.5515    1.5548    1.3086 C   0  0  0  0  0  0  0  0  0  0  0  0
   -3.3478    2.6685    0.5733 O   0  0  0  0  0  0  0  0  0  0  0  0
   -4.6245    0.9869    1.3813 O   0  0  0  0  0  0  0  0  0  0  0  0
   -2.1550   -2.8396    7.6661 H   0  0  0  0  0  0  0  0  0  0  0  0
   -2.8613   -3.2361    6.0857 H   0  0  0  0  0  0  0  0  0  0  0  0
   -3.5009   -1.8735    7.0267 H   0  0  0  0  0  0  0  0  0  0  0  0
    0.1305   -2.7109    6.5217 H   0  0  0  0  0  0  0  0  0  0  0  0
   -0.6058   -3.0436    4.9445 H   0  0  0  0  0  0  0  0  0  0  0  0
    0.3913   -1.5875    5.1718 H   0  0  0  0  0  0  0  0  0  0  0  0
   -0.5318    0.3765    6.5293 H   0  0  0  0  0  0  0  0  0  0  0  0
   -2.1597    0.2655    7.2381 H   0  0  0  0  0  0  0  0  0  0  0  0
   -0.8251   -0.6705    7.9334 H   0  0  0  0  0  0  0  0  0  0  0  0
   -3.5779   -0.2525    3.0164 H   0  0  0  0  0  0  0  0  0  0  0  0
   -1.7940    1.9489    2.4589 H   0  0  0  0  0  0  0  0  0  0  0  0
   -1.8236   -0.2021    0.2880 H   0  0  0  0  0  0  0  0  0  0  0  0
   -0.5786   -0.1127    1.5362 H   0  0  0  0  0  0  0  0  0  0  0  0
   -1.5789    1.2078   -1.6988 H   0  0  0  0  0  0  0  0  0  0  0  0
    1.9291    3.8615    0.4628 H   0  0  0  0  0  0  0  0  0  0  0  0
    0.7337    2.1121    1.8151 H   0  0  0  0  0  0  0  0  0  0  0  0
   -4.1945    2.8815    0.1340 H   0  0  0  0  0  0  0  0  0  0  0  0
  1  2  1  0
  1 24  1  0
  1 25  1  0
  1 26  1  0
  2  3  1  0
  2  4  1  0
  2  5  1  0
  3 27  1  0
  3 28  1  0
  3 29  1  0
  4 30  1  0
  4 31  1  0
  4 32  1  0
  5  6  1  0
  6  7  2  0
  6  8  1  0
  8  9  1  0
  8 33  1  0
  9 10  1  0
  9 21  1  0
  9 34  1  1
 10 11  1  0
 10 35  1  0
 10 36  1  0
 11 12  2  0
 11 16  1  0
 12 13  1  0
 12 37  1  0
 13 14  2  0
 14 15  1  0
 14 17  1  0
 15 16  2  0
 15 38  1  0
 16 39  1  0
 17 18  1  0
 17 19  1  0
 17 20  1  0
 21 22  1  0
 21 23  2  0
 22 40  1  0
M  END
>  <group_name>  (1) 
BRI

>  <molecule_index>  (1) 
00647

>  <conformer_index>  (1) 
01

>  <method>  (1) 
b3lyp-d3bj

>  <basis>  (1) 
dzvp

>  <program>  (1) 
psi4

>  <initial_energy>  (1) 
-786819.5115965399 kilocalorie / mole

>  <final_energy>  (1) 
-786885.2252453485 kilocalorie / mole

$$$$
