BRI-00647-02
     RDKit          3D

 40 40  0  0  0  0  0  0  0  0999 V2000
   -1.9144   -1.3818    6.2290 C   0  0  0  0  0  0  0  0  0  0  0  0
   -0.7872   -1.0104    5.2623 C   0  0  0  0  0  0  0  0  0  0  0  0
   -0.1224    0.3209    5.6242 C   0  0  0  0  0  0  0  0  0  0  0  0
    0.2518   -2.1298    5.1832 C   0  0  0  0  0  0  0  0  0  0  0  0
   -1.2997   -0.9547    3.8777 O   0  0  0  0  0  0  0  0  0  0  0  0
   -2.2502   -0.0608    3.5276 C   0  0  0  0  0  0  0  0  0  0  0  0
   -2.8071    0.7452    4.2678 O   0  0  0  0  0  0  0  0  0  0  0  0
   -2.5144   -0.1679    2.1929 N   0  0  0  0  0  0  0  0  0  0  0  0
   -3.4315    0.7240    1.5258 C   0  0  1  0  0  0  0  0  0  0  0  0
   -2.9690    2.2158    1.5471 C   0  0  0  0  0  0  0  0  0  0  0  0
   -1.5604    2.3984    1.0469 C   0  0  0  0  0  0  0  0  0  0  0  0
   -1.2863    2.6001   -0.3158 C   0  0  0  0  0  0  0  0  0  0  0  0
   -0.0569    2.7347   -0.8168 N   0  0  0  0  0  0  0  0  0  0  0  0
    0.9683    2.6639    0.0376 C   0  0  0  0  0  0  0  0  0  0  0  0
    0.8247    2.4673    1.4108 C   0  0  0  0  0  0  0  0  0  0  0  0
   -0.4687    2.3343    1.9183 C   0  0  0  0  0  0  0  0  0  0  0  0
    2.3382    2.8269   -0.5962 C   0  0  0  0  0  0  0  0  0  0  0  0
    2.5664    1.8902   -1.5412 F   0  0  0  0  0  0  0  0  0  0  0  0
    2.4739    4.0373   -1.1833 F   0  0  0  0  0  0  0  0  0  0  0  0
    3.3284    2.7164    0.3282 F   0  0  0  0  0  0  0  0  0  0  0  0
   -3.5898    0.2233    0.0882 C   0  0  0  0  0  0  0  0  0  0  0  0
   -4.5937    0.7967   -0.6253 O   0  0  0  0  0  0  0  0  0  0  0  0
   -2.8677   -0.6017   -0.4194 O   0  0  0  0  0  0  0  0  0  0  0  0
   -1.4937   -1.5576    7.2244 H   0  0  0  0  0  0  0  0  0  0  0  0
   -2.6579   -0.5874    6.2976 H   0  0  0  0  0  0  0  0  0  0  0  0
   -2.4063   -2.3028    5.9008 H   0  0  0  0  0  0  0  0  0  0  0  0
    0.6334    0.5822    4.8759 H   0  0  0  0  0  0  0  0  0  0  0  0
   -0.8552    1.1258    5.6928 H   0  0  0  0  0  0  0  0  0  0  0  0
    0.3809    0.2249    6.5916 H   0  0  0  0  0  0  0  0  0  0  0  0
    0.7174   -2.2772    6.1620 H   0  0  0  0  0  0  0  0  0  0  0  0
    1.0337   -1.8811    4.4597 H   0  0  0  0  0  0  0  0  0  0  0  0
   -0.2171   -3.0690    4.8761 H   0  0  0  0  0  0  0  0  0  0  0  0
   -1.9720   -0.8017    1.6161 H   0  0  0  0  0  0  0  0  0  0  0  0
   -4.4086    0.6822    2.0250 H   0  0  0  0  0  0  0  0  0  0  0  0
   -3.0476    2.5495    2.5829 H   0  0  0  0  0  0  0  0  0  0  0  0
   -3.6648    2.8209    0.9550 H   0  0  0  0  0  0  0  0  0  0  0  0
   -2.1016    2.6601   -1.0364 H   0  0  0  0  0  0  0  0  0  0  0  0
    1.6926    2.4243    2.0590 H   0  0  0  0  0  0  0  0  0  0  0  0
   -0.6286    2.1918    2.9834 H   0  0  0  0  0  0  0  0  0  0  0  0
   -5.1119    1.3980   -0.0629 H   0  0  0  0  0  0  0  0  0  0  0  0
  1  2  1  0
  1 24  1  0
  1 25  1  0
  1 26  1  0
  2  3  1  0
  2  4  1  0
  2  5  1  0
  3 27  1  0
  3 28  1  0
  3 29  1  0
  4 30  1  0
  4 31  1  0
  4 32  1  0
  5  6  1  0
  6  7  2  0
  6  8  1  0
  8  9  1  0
  8 33  1  0
  9 10  1  0
  9 21  1  0
  9 34  1  1
 10 11  1  0
 10 35  1  0
 10 36  1  0
 11 12  2  0
 11 16  1  0
 12 13  1  0
 12 37  1  0
 13 14  2  0
 14 15  1  0
 14 17  1  0
 15 16  2  0
 15 38  1  0
 16 39  1  0
 17 18  1  0
 17 19  1  0
 17 20  1  0
 21 22  1  0
 21 23  2  0
 22 40  1  0
M  END
>  <group_name>  (1) 
BRI

>  <molecule_index>  (1) 
00647

>  <conformer_index>  (1) 
02

>  <method>  (1) 
b3lyp-d3bj

>  <basis>  (1) 
dzvp

>  <program>  (1) 
psi4

>  <initial_energy>  (1) 
-786819.0789065863 kilocalorie / mole

>  <final_energy>  (1) 
-786880.4232647602 kilocalorie / mole

$$$$
