BRI-00739-03
     RDKit          3D

 34 35  0  0  0  0  0  0  0  0999 V2000
    8.4026    0.9556    2.0574 C   0  0  0  0  0  0  0  0  0  0  0  0
    7.2588    0.2237    1.5243 N   0  0  0  0  0  0  0  0  0  0  0  0
    7.4231   -0.7272    0.5851 C   0  0  0  0  0  0  0  0  0  0  0  0
    8.5082   -1.0409    0.0972 O   0  0  0  0  0  0  0  0  0  0  0  0
    6.1408   -1.4858    0.1240 C   0  0  2  0  0  0  0  0  0  0  0  0
    6.2849   -1.9075   -1.3080 C   0  0  0  0  0  0  0  0  0  0  0  0
    5.3236   -2.0107   -2.1524 N   0  0  0  0  0  0  0  0  0  0  0  0
    4.0144   -1.6830   -1.7477 C   0  0  0  0  0  0  0  0  0  0  0  0
    3.0207   -1.8971   -2.8515 C   0  0  0  0  0  0  0  0  0  0  0  0
    3.7002   -1.1775   -0.5118 C   0  0  0  0  0  0  0  0  0  0  0  0
    4.7713   -0.9106    0.4580 C   0  0  0  0  0  0  0  0  0  0  0  0
    4.5632   -0.3070    1.5153 O   0  0  0  0  0  0  0  0  0  0  0  0
    2.3152   -0.8265   -0.1080 C   0  0  0  0  0  0  0  0  0  0  0  0
    1.9811    0.4733    0.3021 C   0  0  0  0  0  0  0  0  0  0  0  0
    0.6643    0.7331    0.6723 C   0  0  0  0  0  0  0  0  0  0  0  0
   -0.3162   -0.1771    0.6793 N   0  0  0  0  0  0  0  0  0  0  0  0
    0.0088   -1.4166    0.3031 C   0  0  0  0  0  0  0  0  0  0  0  0
    1.2979   -1.7873   -0.0932 C   0  0  0  0  0  0  0  0  0  0  0  0
    0.2377    2.1231    1.1125 C   0  0  0  0  0  0  0  0  0  0  0  0
    1.2750    2.9985    1.0760 F   0  0  0  0  0  0  0  0  0  0  0  0
   -0.2406    2.1201    2.3758 F   0  0  0  0  0  0  0  0  0  0  0  0
   -0.7327    2.6203    0.3128 F   0  0  0  0  0  0  0  0  0  0  0  0
    8.9813    1.3986    1.2432 H   0  0  0  0  0  0  0  0  0  0  0  0
    9.0646    0.2947    2.6265 H   0  0  0  0  0  0  0  0  0  0  0  0
    8.0334    1.7475    2.7111 H   0  0  0  0  0  0  0  0  0  0  0  0
    6.3286    0.3408    1.9189 H   0  0  0  0  0  0  0  0  0  0  0  0
    6.1826   -2.4263    0.7014 H   0  0  0  0  0  0  0  0  0  0  0  0
    7.2943   -2.1477   -1.6389 H   0  0  0  0  0  0  0  0  0  0  0  0
    3.4200   -1.4557   -3.7698 H   0  0  0  0  0  0  0  0  0  0  0  0
    2.0387   -1.4782   -2.6372 H   0  0  0  0  0  0  0  0  0  0  0  0
    2.9170   -2.9713   -3.0463 H   0  0  0  0  0  0  0  0  0  0  0  0
    2.7265    1.2578    0.3291 H   0  0  0  0  0  0  0  0  0  0  0  0
   -0.7943   -2.1510    0.3199 H   0  0  0  0  0  0  0  0  0  0  0  0
    1.5032   -2.8156   -0.3766 H   0  0  0  0  0  0  0  0  0  0  0  0
  1  2  1  0
  1 23  1  0
  1 24  1  0
  1 25  1  0
  2  3  1  0
  2 26  1  0
  3  4  2  0
  3  5  1  0
  5  6  1  0
  5 11  1  0
  5 27  1  1
  6  7  2  0
  6 28  1  0
  7  8  1  0
  8  9  1  0
  8 10  2  0
  9 29  1  0
  9 30  1  0
  9 31  1  0
 10 11  1  0
 10 13  1  0
 11 12  2  0
 13 14  2  0
 13 18  1  0
 14 15  1  0
 14 32  1  0
 15 16  2  0
 15 19  1  0
 16 17  1  0
 17 18  2  0
 17 33  1  0
 18 34  1  0
 19 20  1  0
 19 21  1  0
 19 22  1  0
M  END
>  <group_name>  (1) 
BRI

>  <molecule_index>  (1) 
00739

>  <conformer_index>  (1) 
03

>  <method>  (1) 
b3lyp-d3bj

>  <basis>  (1) 
dzvp

>  <program>  (1) 
psi4

>  <initial_energy>  (1) 
-724830.9876648971 kilocalorie / mole

>  <final_energy>  (1) 
-724887.8947204951 kilocalorie / mole

$$$$
