BRI-01545-00
     RDKit          3D

 40 41  0  0  0  0  0  0  0  0999 V2000
   -1.2360    6.9655   -1.2739 C   0  0  0  0  0  0  0  0  0  0  0  0
    0.1573    7.2345   -1.8453 C   0  0  0  0  0  0  0  0  0  0  0  0
    0.6068    8.6833   -1.6543 C   0  0  0  0  0  0  0  0  0  0  0  0
    0.2388    6.8165   -3.3127 C   0  0  0  0  0  0  0  0  0  0  0  0
    1.1338    6.3167   -1.1994 O   0  0  0  0  0  0  0  0  0  0  0  0
    1.3399    6.3140    0.1208 C   0  0  0  0  0  0  0  0  0  0  0  0
    0.8694    7.0828    0.9388 O   0  0  0  0  0  0  0  0  0  0  0  0
    2.3157    5.1981    0.5206 C   0  0  2  0  0  0  0  0  0  0  0  0
    2.1174    4.9724    1.5698 H   0  0  0  0  0  0  0  0  0  0  0  0
    3.7833    5.6379    0.3107 C   0  0  0  0  0  0  0  0  0  0  0  0
    4.1194    5.1213   -1.0896 C   0  0  0  0  0  0  0  0  0  0  0  0
    3.1780    3.9452   -1.3027 C   0  0  0  0  0  0  0  0  0  0  0  0
    3.2602    3.1131   -2.1900 O   0  0  0  0  0  0  0  0  0  0  0  0
    2.1926    3.9993   -0.3100 N   0  0  0  0  0  0  0  0  0  0  0  0
    1.0306    3.2066   -0.2574 C   0  0  0  0  0  0  0  0  0  0  0  0
   -0.0379    3.5691    0.5782 C   0  0  0  0  0  0  0  0  0  0  0  0
   -1.1828    2.7745    0.6126 C   0  0  0  0  0  0  0  0  0  0  0  0
   -1.2217    1.6391   -0.1909 C   0  0  0  0  0  0  0  0  0  0  0  0
   -0.2121    1.2687   -0.9845 N   0  0  0  0  0  0  0  0  0  0  0  0
    0.8860    2.0219   -1.0209 C   0  0  0  0  0  0  0  0  0  0  0  0
   -2.4345    0.7319   -0.2229 C   0  0  0  0  0  0  0  0  0  0  0  0
   -3.4012    1.1681    0.6283 F   0  0  0  0  0  0  0  0  0  0  0  0
   -2.9866    0.6774   -1.4569 F   0  0  0  0  0  0  0  0  0  0  0  0
   -2.1284   -0.5343    0.1364 F   0  0  0  0  0  0  0  0  0  0  0  0
   -1.4789    5.9012   -1.3494 H   0  0  0  0  0  0  0  0  0  0  0  0
   -1.9758    7.5251   -1.8547 H   0  0  0  0  0  0  0  0  0  0  0  0
   -1.3093    7.2757   -0.2307 H   0  0  0  0  0  0  0  0  0  0  0  0
    0.5520    8.9848   -0.6078 H   0  0  0  0  0  0  0  0  0  0  0  0
   -0.0418    9.3407   -2.2421 H   0  0  0  0  0  0  0  0  0  0  0  0
    1.6331    8.8152   -2.0115 H   0  0  0  0  0  0  0  0  0  0  0  0
    1.2517    6.9597   -3.7003 H   0  0  0  0  0  0  0  0  0  0  0  0
   -0.0298    5.7630   -3.4296 H   0  0  0  0  0  0  0  0  0  0  0  0
   -0.4496    7.4207   -3.9105 H   0  0  0  0  0  0  0  0  0  0  0  0
    3.9017    6.7165    0.4297 H   0  0  0  0  0  0  0  0  0  0  0  0
    4.4059    5.1453    1.0622 H   0  0  0  0  0  0  0  0  0  0  0  0
    5.1540    4.7982   -1.2158 H   0  0  0  0  0  0  0  0  0  0  0  0
    3.8988    5.8587   -1.8678 H   0  0  0  0  0  0  0  0  0  0  0  0
   -0.0015    4.4558    1.1998 H   0  0  0  0  0  0  0  0  0  0  0  0
   -2.0197    3.0392    1.2489 H   0  0  0  0  0  0  0  0  0  0  0  0
    1.6822    1.6946   -1.6760 H   0  0  0  0  0  0  0  0  0  0  0  0
  1  2  1  0
  1 25  1  0
  1 26  1  0
  1 27  1  0
  2  3  1  0
  2  4  1  0
  2  5  1  0
  3 28  1  0
  3 29  1  0
  3 30  1  0
  4 31  1  0
  4 32  1  0
  4 33  1  0
  5  6  1  0
  6  7  2  0
  6  8  1  0
  8  9  1  1
  8 10  1  0
  8 14  1  0
 10 11  1  0
 10 34  1  0
 10 35  1  0
 11 12  1  0
 11 36  1  0
 11 37  1  0
 12 13  2  0
 12 14  1  0
 14 15  1  0
 15 16  2  0
 15 20  1  0
 16 17  1  0
 16 38  1  0
 17 18  2  0
 17 39  1  0
 18 19  1  0
 18 21  1  0
 19 20  2  0
 20 40  1  0
 21 22  1  0
 21 23  1  0
 21 24  1  0
M  END
>  <group_name>  (1) 
BRI

>  <molecule_index>  (1) 
01545

>  <conformer_index>  (1) 
00

>  <method>  (1) 
b3lyp-d3bj

>  <basis>  (1) 
dzvp

>  <program>  (1) 
psi4

>  <initial_energy>  (1) 
-763510.5174733552 kilocalorie / mole

>  <final_energy>  (1) 
-763580.1863440559 kilocalorie / mole

$$$$
