BRI-00649-07
     RDKit          3D

 53 55  0  0  0  0  0  0  0  0999 V2000
    3.4484   -4.0762   -0.9094 C   0  0  0  0  0  0  0  0  0  0  0  0
    3.7145   -3.1993   -2.1398 C   0  0  0  0  0  0  0  0  0  0  0  0
    5.0997   -2.7133   -2.2325 N   0  0  0  0  0  0  0  0  0  0  0  0
    5.4271   -1.3275   -1.8669 C   0  0  1  0  0  0  0  0  0  0  0  0
    6.5126   -1.2523   -1.9341 H   0  0  0  0  0  0  0  0  0  0  0  0
    4.8233   -0.3274   -2.8588 C   0  0  0  0  0  0  0  0  0  0  0  0
    5.1125   -0.9996   -0.3854 C   0  0  0  0  0  0  0  0  0  0  0  0
    3.7200   -0.7866   -0.0379 N   0  0  0  0  0  0  0  0  0  0  0  0
    3.0179    0.3914   -0.1014 C   0  0  0  0  0  0  0  0  0  0  0  0
    3.6198    1.6552   -0.3192 C   0  0  0  0  0  0  0  0  0  0  0  0
    2.8130    2.7837   -0.3379 C   0  0  0  0  0  0  0  0  0  0  0  0
    1.4417    2.6334   -0.1437 C   0  0  0  0  0  0  0  0  0  0  0  0
    0.6344    3.7198   -0.1658 F   0  0  0  0  0  0  0  0  0  0  0  0
    0.9240    1.3592    0.0680 C   0  0  0  0  0  0  0  0  0  0  0  0
    1.6905    0.2695    0.0847 N   0  0  0  0  0  0  0  0  0  0  0  0
   -0.5691    1.1616    0.2836 C   0  0  0  0  0  0  0  0  0  0  0  0
   -1.2764    1.5766   -0.7984 F   0  0  0  0  0  0  0  0  0  0  0  0
   -1.0091    1.8813    1.3462 F   0  0  0  0  0  0  0  0  0  0  0  0
   -0.8840   -0.1240    0.5052 F   0  0  0  0  0  0  0  0  0  0  0  0
    6.0497   -3.6384   -2.5596 C   0  0  0  0  0  0  0  0  0  0  0  0
    5.7796   -4.8227   -2.7738 O   0  0  0  0  0  0  0  0  0  0  0  0
    7.4773   -3.1684   -2.7342 C   0  0  0  0  0  0  0  0  0  0  0  0
    8.4677   -3.5418   -1.8063 C   0  0  0  0  0  0  0  0  0  0  0  0
    9.7890   -3.1760   -2.0879 C   0  0  0  0  0  0  0  0  0  0  0  0
   10.7624   -3.4579   -1.1931 F   0  0  0  0  0  0  0  0  0  0  0  0
   10.1504   -2.4870   -3.2406 C   0  0  0  0  0  0  0  0  0  0  0  0
    9.1550   -2.1499   -4.1599 C   0  0  0  0  0  0  0  0  0  0  0  0
    7.8237   -2.4862   -3.9047 C   0  0  0  0  0  0  0  0  0  0  0  0
    8.1160   -4.3083   -0.5813 C   0  0  0  0  0  0  0  0  0  0  0  0
    8.8770   -5.3713   -0.2789 N   0  0  0  0  0  0  0  0  0  0  0  0
    8.5134   -6.0798    0.7944 C   0  0  0  0  0  0  0  0  0  0  0  0
    7.4007   -5.7468    1.5699 C   0  0  0  0  0  0  0  0  0  0  0  0
    6.6891   -4.6156    1.1738 C   0  0  0  0  0  0  0  0  0  0  0  0
    7.0403   -3.8872    0.1082 N   0  0  0  0  0  0  0  0  0  0  0  0
    4.0379   -4.9922   -0.9680 H   0  0  0  0  0  0  0  0  0  0  0  0
    3.7119   -3.5702    0.0250 H   0  0  0  0  0  0  0  0  0  0  0  0
    2.3870   -4.3424   -0.8655 H   0  0  0  0  0  0  0  0  0  0  0  0
    3.5020   -3.7831   -3.0392 H   0  0  0  0  0  0  0  0  0  0  0  0
    3.0547   -2.3300   -2.1481 H   0  0  0  0  0  0  0  0  0  0  0  0
    3.7318   -0.3016   -2.8073 H   0  0  0  0  0  0  0  0  0  0  0  0
    5.1103   -0.5941   -3.8798 H   0  0  0  0  0  0  0  0  0  0  0  0
    5.1879    0.6839   -2.6556 H   0  0  0  0  0  0  0  0  0  0  0  0
    5.5075   -1.8182    0.2201 H   0  0  0  0  0  0  0  0  0  0  0  0
    5.6839   -0.1086   -0.1086 H   0  0  0  0  0  0  0  0  0  0  0  0
    3.1317   -1.5936    0.1216 H   0  0  0  0  0  0  0  0  0  0  0  0
    4.6886    1.7527   -0.4658 H   0  0  0  0  0  0  0  0  0  0  0  0
    3.2276    3.7741   -0.5008 H   0  0  0  0  0  0  0  0  0  0  0  0
   11.1923   -2.2264   -3.3983 H   0  0  0  0  0  0  0  0  0  0  0  0
    9.4195   -1.6239   -5.0729 H   0  0  0  0  0  0  0  0  0  0  0  0
    7.0492   -2.2312   -4.6225 H   0  0  0  0  0  0  0  0  0  0  0  0
    9.1308   -6.9439    1.0354 H   0  0  0  0  0  0  0  0  0  0  0  0
    7.1074   -6.3342    2.4341 H   0  0  0  0  0  0  0  0  0  0  0  0
    5.8122   -4.2795    1.7258 H   0  0  0  0  0  0  0  0  0  0  0  0
  1  2  1  0
  1 35  1  0
  1 36  1  0
  1 37  1  0
  2  3  1  0
  2 38  1  0
  2 39  1  0
  3  4  1  0
  3 20  1  0
  4  5  1  1
  4  6  1  0
  4  7  1  0
  6 40  1  0
  6 41  1  0
  6 42  1  0
  7  8  1  0
  7 43  1  0
  7 44  1  0
  8  9  1  0
  8 45  1  0
  9 10  2  0
  9 15  1  0
 10 11  1  0
 10 46  1  0
 11 12  2  0
 11 47  1  0
 12 13  1  0
 12 14  1  0
 14 15  2  0
 14 16  1  0
 16 17  1  0
 16 18  1  0
 16 19  1  0
 20 21  2  0
 20 22  1  0
 22 23  1  0
 22 28  2  0
 23 24  2  0
 23 29  1  0
 24 25  1  0
 24 26  1  0
 26 27  2  0
 26 48  1  0
 27 28  1  0
 27 49  1  0
 28 50  1  0
 29 30  2  0
 29 34  1  0
 30 31  1  0
 31 32  2  0
 31 51  1  0
 32 33  1  0
 32 52  1  0
 33 34  2  0
 33 53  1  0
M  END
>  <group_name>  (1) 
BRI

>  <molecule_index>  (1) 
00649

>  <conformer_index>  (1) 
07

>  <method>  (1) 
b3lyp-d3bj

>  <basis>  (1) 
dzvp

>  <program>  (1) 
psi4

>  <initial_energy>  (1) 
-1066045.6340661834 kilocalorie / mole

>  <final_energy>  (1) 
-1066100.0918172828 kilocalorie / mole

$$$$
