BRI-00649-09
     RDKit          3D

 53 55  0  0  0  0  0  0  0  0999 V2000
    9.1144   -0.8518   -2.7435 C   0  0  0  0  0  0  0  0  0  0  0  0
    8.1252   -1.3708   -1.6976 C   0  0  0  0  0  0  0  0  0  0  0  0
    6.7419   -0.9181   -1.9094 N   0  0  0  0  0  0  0  0  0  0  0  0
    6.4400    0.4476   -1.4306 C   0  0  1  0  0  0  0  0  0  0  0  0
    7.3832    0.9961   -1.5397 H   0  0  0  0  0  0  0  0  0  0  0  0
    5.4069    1.1924   -2.2822 C   0  0  0  0  0  0  0  0  0  0  0  0
    6.1438    0.4491    0.0895 C   0  0  0  0  0  0  0  0  0  0  0  0
    5.1011   -0.4522    0.5380 N   0  0  0  0  0  0  0  0  0  0  0  0
    3.7502   -0.1723    0.5106 C   0  0  0  0  0  0  0  0  0  0  0  0
    3.2216    1.1351    0.3977 C   0  0  0  0  0  0  0  0  0  0  0  0
    1.8447    1.3068    0.4201 C   0  0  0  0  0  0  0  0  0  0  0  0
    1.0340    0.1835    0.5544 C   0  0  0  0  0  0  0  0  0  0  0  0
   -0.3137    0.3215    0.5715 F   0  0  0  0  0  0  0  0  0  0  0  0
    1.6280   -1.0695    0.6742 C   0  0  0  0  0  0  0  0  0  0  0  0
    2.9477   -1.2412    0.6574 N   0  0  0  0  0  0  0  0  0  0  0  0
    0.7626   -2.3082    0.8436 C   0  0  0  0  0  0  0  0  0  0  0  0
   -0.0042   -2.2183    1.9631 F   0  0  0  0  0  0  0  0  0  0  0  0
    1.4947   -3.4312    0.9514 F   0  0  0  0  0  0  0  0  0  0  0  0
   -0.0824   -2.4702   -0.2026 F   0  0  0  0  0  0  0  0  0  0  0  0
    5.7480   -1.7845   -2.2920 C   0  0  0  0  0  0  0  0  0  0  0  0
    4.5449   -1.5361   -2.2230 O   0  0  0  0  0  0  0  0  0  0  0  0
    6.2026   -3.0763   -2.9325 C   0  0  0  0  0  0  0  0  0  0  0  0
    5.9729   -4.3224   -2.3187 C   0  0  0  0  0  0  0  0  0  0  0  0
    6.3609   -5.4654   -3.0327 C   0  0  0  0  0  0  0  0  0  0  0  0
    6.2517   -6.6841   -2.4590 F   0  0  0  0  0  0  0  0  0  0  0  0
    6.9079   -5.4122   -4.3103 C   0  0  0  0  0  0  0  0  0  0  0  0
    7.0818   -4.1672   -4.9152 C   0  0  0  0  0  0  0  0  0  0  0  0
    6.7396   -3.0049   -4.2219 C   0  0  0  0  0  0  0  0  0  0  0  0
    5.3449   -4.4473   -0.9743 C   0  0  0  0  0  0  0  0  0  0  0  0
    4.4246   -5.4126   -0.8329 N   0  0  0  0  0  0  0  0  0  0  0  0
    3.8765   -5.5500    0.3778 C   0  0  0  0  0  0  0  0  0  0  0  0
    4.2423   -4.7471    1.4571 C   0  0  0  0  0  0  0  0  0  0  0  0
    5.1872   -3.7596    1.1974 C   0  0  0  0  0  0  0  0  0  0  0  0
    5.7440   -3.5945   -0.0116 N   0  0  0  0  0  0  0  0  0  0  0  0
    8.8853   -1.2560   -3.7324 H   0  0  0  0  0  0  0  0  0  0  0  0
    9.0989    0.2410   -2.8084 H   0  0  0  0  0  0  0  0  0  0  0  0
   10.1324   -1.1565   -2.4781 H   0  0  0  0  0  0  0  0  0  0  0  0
    8.4362   -1.0442   -0.6986 H   0  0  0  0  0  0  0  0  0  0  0  0
    8.1363   -2.4597   -1.6714 H   0  0  0  0  0  0  0  0  0  0  0  0
    5.4134    2.2510   -1.9994 H   0  0  0  0  0  0  0  0  0  0  0  0
    5.6765    1.1256   -3.3409 H   0  0  0  0  0  0  0  0  0  0  0  0
    4.4023    0.7938   -2.1642 H   0  0  0  0  0  0  0  0  0  0  0  0
    7.0592    0.1591    0.6168 H   0  0  0  0  0  0  0  0  0  0  0  0
    5.9254    1.4703    0.4134 H   0  0  0  0  0  0  0  0  0  0  0  0
    5.2849   -1.4266    0.3164 H   0  0  0  0  0  0  0  0  0  0  0  0
    3.8685    1.9962    0.2808 H   0  0  0  0  0  0  0  0  0  0  0  0
    1.3926    2.2899    0.3277 H   0  0  0  0  0  0  0  0  0  0  0  0
    7.1868   -6.3378   -4.8041 H   0  0  0  0  0  0  0  0  0  0  0  0
    7.4888   -4.1049   -5.9205 H   0  0  0  0  0  0  0  0  0  0  0  0
    6.8655   -2.0337   -4.6905 H   0  0  0  0  0  0  0  0  0  0  0  0
    3.1151   -6.3215    0.4796 H   0  0  0  0  0  0  0  0  0  0  0  0
    3.7881   -4.8580    2.4358 H   0  0  0  0  0  0  0  0  0  0  0  0
    5.5001   -3.0666    1.9758 H   0  0  0  0  0  0  0  0  0  0  0  0
  1  2  1  0
  1 35  1  0
  1 36  1  0
  1 37  1  0
  2  3  1  0
  2 38  1  0
  2 39  1  0
  3  4  1  0
  3 20  1  0
  4  5  1  1
  4  6  1  0
  4  7  1  0
  6 40  1  0
  6 41  1  0
  6 42  1  0
  7  8  1  0
  7 43  1  0
  7 44  1  0
  8  9  1  0
  8 45  1  0
  9 10  2  0
  9 15  1  0
 10 11  1  0
 10 46  1  0
 11 12  2  0
 11 47  1  0
 12 13  1  0
 12 14  1  0
 14 15  2  0
 14 16  1  0
 16 17  1  0
 16 18  1  0
 16 19  1  0
 20 21  2  0
 20 22  1  0
 22 23  1  0
 22 28  2  0
 23 24  2  0
 23 29  1  0
 24 25  1  0
 24 26  1  0
 26 27  2  0
 26 48  1  0
 27 28  1  0
 27 49  1  0
 28 50  1  0
 29 30  2  0
 29 34  1  0
 30 31  1  0
 31 32  2  0
 31 51  1  0
 32 33  1  0
 32 52  1  0
 33 34  2  0
 33 53  1  0
M  END
>  <group_name>  (1) 
BRI

>  <molecule_index>  (1) 
00649

>  <conformer_index>  (1) 
09

>  <method>  (1) 
b3lyp-d3bj

>  <basis>  (1) 
dzvp

>  <program>  (1) 
psi4

>  <initial_energy>  (1) 
-1066049.8505486145 kilocalorie / mole

>  <final_energy>  (1) 
-1066101.4186271909 kilocalorie / mole

$$$$
