BRI-00649-08
     RDKit          3D

 53 55  0  0  0  0  0  0  0  0999 V2000
    7.0756    1.5156   -0.9776 C   0  0  0  0  0  0  0  0  0  0  0  0
    6.2552    0.2934   -0.5602 C   0  0  0  0  0  0  0  0  0  0  0  0
    6.3165   -0.7994   -1.5496 N   0  0  0  0  0  0  0  0  0  0  0  0
    5.4455   -0.6173   -2.7327 C   0  0  1  0  0  0  0  0  0  0  0  0
    4.8808    0.2824   -2.4797 H   0  0  0  0  0  0  0  0  0  0  0  0
    6.1573   -0.3073   -4.0592 C   0  0  0  0  0  0  0  0  0  0  0  0
    4.3995   -1.7378   -2.9206 C   0  0  0  0  0  0  0  0  0  0  0  0
    3.6354   -2.0429   -1.7283 N   0  0  0  0  0  0  0  0  0  0  0  0
    2.8318   -1.1322   -1.0959 C   0  0  0  0  0  0  0  0  0  0  0  0
    2.2536   -0.0162   -1.7547 C   0  0  0  0  0  0  0  0  0  0  0  0
    1.4292    0.8386   -1.0379 C   0  0  0  0  0  0  0  0  0  0  0  0
    1.1966    0.5697    0.3094 C   0  0  0  0  0  0  0  0  0  0  0  0
    0.4015    1.3917    1.0351 F   0  0  0  0  0  0  0  0  0  0  0  0
    1.7916   -0.5470    0.8883 C   0  0  0  0  0  0  0  0  0  0  0  0
    2.5897   -1.3705    0.2102 N   0  0  0  0  0  0  0  0  0  0  0  0
    1.5534   -0.8640    2.3569 C   0  0  0  0  0  0  0  0  0  0  0  0
    2.2026   -1.9790    2.7479 F   0  0  0  0  0  0  0  0  0  0  0  0
    0.2363   -1.0521    2.6140 F   0  0  0  0  0  0  0  0  0  0  0  0
    1.9760    0.1488    3.1534 F   0  0  0  0  0  0  0  0  0  0  0  0
    7.1039   -1.8730   -1.2147 C   0  0  0  0  0  0  0  0  0  0  0  0
    7.7507   -1.9145   -0.1638 O   0  0  0  0  0  0  0  0  0  0  0  0
    7.2294   -3.0542   -2.1478 C   0  0  0  0  0  0  0  0  0  0  0  0
    6.8364   -4.3321   -1.6965 C   0  0  0  0  0  0  0  0  0  0  0  0
    7.0816   -5.4207   -2.5370 C   0  0  0  0  0  0  0  0  0  0  0  0
    6.6554   -6.6492   -2.1666 F   0  0  0  0  0  0  0  0  0  0  0  0
    7.7305   -5.3004   -3.7618 C   0  0  0  0  0  0  0  0  0  0  0  0
    8.1778   -4.0394   -4.1556 C   0  0  0  0  0  0  0  0  0  0  0  0
    7.9269   -2.9240   -3.3522 C   0  0  0  0  0  0  0  0  0  0  0  0
    6.2484   -4.5379   -0.3418 C   0  0  0  0  0  0  0  0  0  0  0  0
    5.1915   -3.7834   -0.0070 N   0  0  0  0  0  0  0  0  0  0  0  0
    4.7066   -3.9110    1.2359 C   0  0  0  0  0  0  0  0  0  0  0  0
    5.2700   -4.8056    2.1437 C   0  0  0  0  0  0  0  0  0  0  0  0
    6.3459   -5.5676    1.6838 C   0  0  0  0  0  0  0  0  0  0  0  0
    6.8417   -5.4430    0.4474 N   0  0  0  0  0  0  0  0  0  0  0  0
    6.7169    1.9461   -1.9189 H   0  0  0  0  0  0  0  0  0  0  0  0
    8.1281    1.2434   -1.1009 H   0  0  0  0  0  0  0  0  0  0  0  0
    7.0100    2.2925   -0.2084 H   0  0  0  0  0  0  0  0  0  0  0  0
    5.2029    0.5618   -0.4198 H   0  0  0  0  0  0  0  0  0  0  0  0
    6.6264   -0.1016    0.3839 H   0  0  0  0  0  0  0  0  0  0  0  0
    7.0278    0.3331   -3.8955 H   0  0  0  0  0  0  0  0  0  0  0  0
    6.4805   -1.2123   -4.5762 H   0  0  0  0  0  0  0  0  0  0  0  0
    5.4678    0.2237   -4.7245 H   0  0  0  0  0  0  0  0  0  0  0  0
    4.8857   -2.6620   -3.2379 H   0  0  0  0  0  0  0  0  0  0  0  0
    3.7368   -1.4442   -3.7436 H   0  0  0  0  0  0  0  0  0  0  0  0
    4.1164   -2.6821   -1.0826 H   0  0  0  0  0  0  0  0  0  0  0  0
    2.4355    0.1628   -2.8087 H   0  0  0  0  0  0  0  0  0  0  0  0
    0.9643    1.7035   -1.5020 H   0  0  0  0  0  0  0  0  0  0  0  0
    7.8895   -6.1858   -4.3693 H   0  0  0  0  0  0  0  0  0  0  0  0
    8.7260   -3.9267   -5.0868 H   0  0  0  0  0  0  0  0  0  0  0  0
    8.3142   -1.9541   -3.6418 H   0  0  0  0  0  0  0  0  0  0  0  0
    3.8551   -3.2806    1.4816 H   0  0  0  0  0  0  0  0  0  0  0  0
    4.8855   -4.9087    3.1533 H   0  0  0  0  0  0  0  0  0  0  0  0
    6.8315   -6.3013    2.3256 H   0  0  0  0  0  0  0  0  0  0  0  0
  1  2  1  0
  1 35  1  0
  1 36  1  0
  1 37  1  0
  2  3  1  0
  2 38  1  0
  2 39  1  0
  3  4  1  0
  3 20  1  0
  4  5  1  1
  4  6  1  0
  4  7  1  0
  6 40  1  0
  6 41  1  0
  6 42  1  0
  7  8  1  0
  7 43  1  0
  7 44  1  0
  8  9  1  0
  8 45  1  0
  9 10  2  0
  9 15  1  0
 10 11  1  0
 10 46  1  0
 11 12  2  0
 11 47  1  0
 12 13  1  0
 12 14  1  0
 14 15  2  0
 14 16  1  0
 16 17  1  0
 16 18  1  0
 16 19  1  0
 20 21  2  0
 20 22  1  0
 22 23  1  0
 22 28  2  0
 23 24  2  0
 23 29  1  0
 24 25  1  0
 24 26  1  0
 26 27  2  0
 26 48  1  0
 27 28  1  0
 27 49  1  0
 28 50  1  0
 29 30  2  0
 29 34  1  0
 30 31  1  0
 31 32  2  0
 31 51  1  0
 32 33  1  0
 32 52  1  0
 33 34  2  0
 33 53  1  0
M  END
>  <group_name>  (1) 
BRI

>  <molecule_index>  (1) 
00649

>  <conformer_index>  (1) 
08

>  <method>  (1) 
b3lyp-d3bj

>  <basis>  (1) 
dzvp

>  <program>  (1) 
psi4

>  <initial_energy>  (1) 
-1066057.4352402242 kilocalorie / mole

>  <final_energy>  (1) 
-1066104.5434563071 kilocalorie / mole

$$$$
