BRI-00647-07
     RDKit          3D

 40 40  0  0  0  0  0  0  0  0999 V2000
    0.0620   -1.6903    4.4141 C   0  0  0  0  0  0  0  0  0  0  0  0
   -0.8476   -0.8732    5.3359 C   0  0  0  0  0  0  0  0  0  0  0  0
   -0.0816   -0.4006    6.5724 C   0  0  0  0  0  0  0  0  0  0  0  0
   -2.1129   -1.6353    5.7373 C   0  0  0  0  0  0  0  0  0  0  0  0
   -1.2130    0.4018    4.6826 O   0  0  0  0  0  0  0  0  0  0  0  0
   -1.9138    0.4084    3.5304 C   0  0  0  0  0  0  0  0  0  0  0  0
   -2.3100   -0.5705    2.9104 O   0  0  0  0  0  0  0  0  0  0  0  0
   -2.0802    1.7078    3.1045 N   0  0  0  0  0  0  0  0  0  0  0  0
   -3.0631    2.0394    2.0921 C   0  0  1  0  0  0  0  0  0  0  0  0
   -2.7799    1.4023    0.7058 C   0  0  0  0  0  0  0  0  0  0  0  0
   -1.3607    1.6479    0.2614 C   0  0  0  0  0  0  0  0  0  0  0  0
   -1.0055    2.8379   -0.3935 C   0  0  0  0  0  0  0  0  0  0  0  0
    0.2360    3.1402   -0.7801 N   0  0  0  0  0  0  0  0  0  0  0  0
    1.1928    2.2413   -0.5267 C   0  0  0  0  0  0  0  0  0  0  0  0
    0.9637    1.0196    0.1060 C   0  0  0  0  0  0  0  0  0  0  0  0
   -0.3405    0.7244    0.5073 C   0  0  0  0  0  0  0  0  0  0  0  0
    2.5821    2.6467   -0.9820 C   0  0  0  0  0  0  0  0  0  0  0  0
    2.6255    2.8863   -2.3114 F   0  0  0  0  0  0  0  0  0  0  0  0
    3.0034    3.7700   -0.3561 F   0  0  0  0  0  0  0  0  0  0  0  0
    3.4961    1.6760   -0.7189 F   0  0  0  0  0  0  0  0  0  0  0  0
   -4.4862    1.7463    2.5874 C   0  0  0  0  0  0  0  0  0  0  0  0
   -5.4020    1.8776    1.5940 O   0  0  0  0  0  0  0  0  0  0  0  0
   -4.7841    1.4795    3.7309 O   0  0  0  0  0  0  0  0  0  0  0  0
    0.4528   -2.5531    4.9631 H   0  0  0  0  0  0  0  0  0  0  0  0
   -0.4800   -2.0511    3.5394 H   0  0  0  0  0  0  0  0  0  0  0  0
    0.9122   -1.0840    4.0852 H   0  0  0  0  0  0  0  0  0  0  0  0
   -0.7197    0.2236    7.2047 H   0  0  0  0  0  0  0  0  0  0  0  0
    0.7974    0.1827    6.2830 H   0  0  0  0  0  0  0  0  0  0  0  0
    0.2505   -1.2627    7.1580 H   0  0  0  0  0  0  0  0  0  0  0  0
   -2.7675   -0.9947    6.3360 H   0  0  0  0  0  0  0  0  0  0  0  0
   -1.8341   -2.5030    6.3442 H   0  0  0  0  0  0  0  0  0  0  0  0
   -2.6636   -1.9812    4.8624 H   0  0  0  0  0  0  0  0  0  0  0  0
   -1.8946    2.4087    3.8103 H   0  0  0  0  0  0  0  0  0  0  0  0
   -3.0142    3.1270    1.9640 H   0  0  0  0  0  0  0  0  0  0  0  0
   -3.4826    1.8400   -0.0072 H   0  0  0  0  0  0  0  0  0  0  0  0
   -2.9779    0.3323    0.7609 H   0  0  0  0  0  0  0  0  0  0  0  0
   -1.7686    3.5827   -0.6218 H   0  0  0  0  0  0  0  0  0  0  0  0
    1.7776    0.3245    0.2792 H   0  0  0  0  0  0  0  0  0  0  0  0
   -0.5681   -0.2118    1.0093 H   0  0  0  0  0  0  0  0  0  0  0  0
   -6.2752    1.7078    1.9984 H   0  0  0  0  0  0  0  0  0  0  0  0
  1  2  1  0
  1 24  1  0
  1 25  1  0
  1 26  1  0
  2  3  1  0
  2  4  1  0
  2  5  1  0
  3 27  1  0
  3 28  1  0
  3 29  1  0
  4 30  1  0
  4 31  1  0
  4 32  1  0
  5  6  1  0
  6  7  2  0
  6  8  1  0
  8  9  1  0
  8 33  1  0
  9 10  1  0
  9 21  1  0
  9 34  1  6
 10 11  1  0
 10 35  1  0
 10 36  1  0
 11 12  2  0
 11 16  1  0
 12 13  1  0
 12 37  1  0
 13 14  2  0
 14 15  1  0
 14 17  1  0
 15 16  2  0
 15 38  1  0
 16 39  1  0
 17 18  1  0
 17 19  1  0
 17 20  1  0
 21 22  1  0
 21 23  2  0
 22 40  1  0
M  END
>  <group_name>  (1) 
BRI

>  <molecule_index>  (1) 
00647

>  <conformer_index>  (1) 
07

>  <method>  (1) 
b3lyp-d3bj

>  <basis>  (1) 
dzvp

>  <program>  (1) 
psi4

>  <initial_energy>  (1) 
-786772.3392966036 kilocalorie / mole

>  <final_energy>  (1) 
-786884.0773154094 kilocalorie / mole

$$$$
