BRI-00593-03
     RDKit          3D

 36 38  0  0  0  0  0  0  0  0999 V2000
    4.7126    4.8603   -2.0248 C   0  0  0  0  0  0  0  0  0  0  0  0
    4.1006    5.2275   -0.6804 C   0  0  0  0  0  0  0  0  0  0  0  0
    2.7902    4.6247   -0.5153 O   0  0  0  0  0  0  0  0  0  0  0  0
    2.7570    3.3398   -0.1197 C   0  0  0  0  0  0  0  0  0  0  0  0
    3.7427    2.6999    0.2148 O   0  0  0  0  0  0  0  0  0  0  0  0
    1.3751    2.7864   -0.0563 C   0  0  0  0  0  0  0  0  0  0  0  0
    0.2543    3.1628   -0.8188 C   0  0  0  0  0  0  0  0  0  0  0  0
   -0.9573    2.6407   -0.6557 N   0  0  0  0  0  0  0  0  0  0  0  0
   -1.1603    1.7006    0.2902 C   0  0  0  0  0  0  0  0  0  0  0  0
   -0.0826    1.1959    1.0642 C   0  0  0  0  0  0  0  0  0  0  0  0
    1.1670    1.7478    0.8753 C   0  0  0  0  0  0  0  0  0  0  0  0
   -2.4378    1.2611    0.4446 N   0  0  0  0  0  0  0  0  0  0  0  0
   -3.5134    1.6567   -0.4784 C   0  0  0  0  0  0  0  0  0  0  0  0
   -4.7571    1.0433    0.1351 C   0  0  2  0  0  0  0  0  0  0  0  0
   -5.0422    1.3864    1.5794 C   0  0  0  0  0  0  0  0  0  0  0  0
   -4.3209    0.1011    1.2393 C   0  0  2  0  0  0  0  0  0  0  0  0
   -2.8059    0.1364    1.3079 C   0  0  0  0  0  0  0  0  0  0  0  0
    0.3147    4.1706   -1.9750 C   0  0  0  0  0  0  0  0  0  0  0  0
    1.4069    3.9726   -2.7566 F   0  0  0  0  0  0  0  0  0  0  0  0
   -0.7581    4.0606   -2.7816 F   0  0  0  0  0  0  0  0  0  0  0  0
    0.3439    5.4503   -1.5339 F   0  0  0  0  0  0  0  0  0  0  0  0
    5.6619    5.3927   -2.1506 H   0  0  0  0  0  0  0  0  0  0  0  0
    4.9109    3.7873   -2.0815 H   0  0  0  0  0  0  0  0  0  0  0  0
    4.0446    5.1419   -2.8432 H   0  0  0  0  0  0  0  0  0  0  0  0
    4.7387    4.9160    0.1494 H   0  0  0  0  0  0  0  0  0  0  0  0
    3.9065    6.2993   -0.6085 H   0  0  0  0  0  0  0  0  0  0  0  0
   -0.2297    0.3977    1.7824 H   0  0  0  0  0  0  0  0  0  0  0  0
    2.0213    1.3949    1.4445 H   0  0  0  0  0  0  0  0  0  0  0  0
   -3.5523    2.7459   -0.5576 H   0  0  0  0  0  0  0  0  0  0  0  0
   -3.3281    1.2592   -1.4849 H   0  0  0  0  0  0  0  0  0  0  0  0
   -5.5815    0.7913   -0.5236 H   0  0  0  0  0  0  0  0  0  0  0  0
   -4.4714    2.1911    2.0377 H   0  0  0  0  0  0  0  0  0  0  0  0
   -6.0700    1.3047    1.9197 H   0  0  0  0  0  0  0  0  0  0  0  0
   -4.8175   -0.8496    1.4029 H   0  0  0  0  0  0  0  0  0  0  0  0
   -2.4378    0.3023    2.3276 H   0  0  0  0  0  0  0  0  0  0  0  0
   -2.3772   -0.8082    0.9407 H   0  0  0  0  0  0  0  0  0  0  0  0
  1  2  1  0
  1 22  1  0
  1 23  1  0
  1 24  1  0
  2  3  1  0
  2 25  1  0
  2 26  1  0
  3  4  1  0
  4  5  2  0
  4  6  1  0
  6  7  2  0
  6 11  1  0
  7  8  1  0
  7 18  1  0
  8  9  2  0
  9 10  1  0
  9 12  1  0
 10 11  2  0
 10 27  1  0
 11 28  1  0
 12 13  1  0
 12 17  1  0
 13 14  1  0
 13 29  1  0
 13 30  1  0
 14 15  1  0
 14 16  1  0
 14 31  1  6
 15 16  1  0
 15 32  1  0
 15 33  1  0
 16 17  1  0
 16 34  1  6
 17 35  1  0
 17 36  1  0
 18 19  1  0
 18 20  1  0
 18 21  1  0
M  END
>  <group_name>  (1) 
BRI

>  <molecule_index>  (1) 
00593

>  <conformer_index>  (1) 
03

>  <method>  (1) 
b3lyp-d3bj

>  <basis>  (1) 
dzvp

>  <program>  (1) 
psi4

>  <initial_energy>  (1) 
-691620.3171233347 kilocalorie / mole

>  <final_energy>  (1) 
-691654.2430534287 kilocalorie / mole

$$$$
