BRI-00638-00
     RDKit          3D

 45 45  0  0  0  0  0  0  0  0999 V2000
   -2.0770    7.5872    0.9561 C   0  0  0  0  0  0  0  0  0  0  0  0
   -2.6921    6.2560    0.5324 C   0  0  0  0  0  0  0  0  0  0  0  0
   -2.9508    5.3612    1.6274 O   0  0  0  0  0  0  0  0  0  0  0  0
   -1.8075    4.8831    2.3274 C   0  0  0  0  0  0  0  0  0  0  0  0
   -0.8760    4.0403    1.4512 C   0  0  0  0  0  0  0  0  0  0  0  0
   -1.6804    3.0165    0.7588 N   0  0  0  0  0  0  0  0  0  0  0  0
   -1.2390    2.5793   -0.8268 S   0  0  0  0  0  0  0  0  0  0  0  0
   -2.5008    2.5247   -1.5723 O   0  0  0  0  0  0  0  0  0  0  0  0
   -0.1136    3.4249   -1.2428 O   0  0  0  0  0  0  0  0  0  0  0  0
   -0.6083    0.8277   -0.5330 C   0  0  0  0  0  0  0  0  0  0  0  0
    0.5408    0.9444    0.4772 C   0  0  0  0  0  0  0  0  0  0  0  0
   -1.8061    0.0114   -0.0253 C   0  0  0  0  0  0  0  0  0  0  0  0
   -0.1377    0.3402   -1.9100 C   0  0  0  0  0  0  0  0  0  0  0  0
   -0.3092    0.9964   -2.9245 O   0  0  0  0  0  0  0  0  0  0  0  0
    0.5388   -0.8844   -2.0838 N   0  0  0  0  0  0  0  0  0  0  0  0
    0.8565   -2.0225   -1.3421 C   0  0  0  0  0  0  0  0  0  0  0  0
    1.5612   -3.0568   -2.0072 C   0  0  0  0  0  0  0  0  0  0  0  0
    1.8873   -4.2009   -1.2991 C   0  0  0  0  0  0  0  0  0  0  0  0
    1.5186   -4.3113    0.0522 C   0  0  0  0  0  0  0  0  0  0  0  0
    0.8324   -3.2385    0.6014 C   0  0  0  0  0  0  0  0  0  0  0  0
    0.5037   -2.1247   -0.0645 N   0  0  0  0  0  0  0  0  0  0  0  0
    0.3804   -3.2399    2.0509 C   0  0  0  0  0  0  0  0  0  0  0  0
   -0.9644   -3.1299    2.1483 F   0  0  0  0  0  0  0  0  0  0  0  0
    0.7425   -4.3782    2.6877 F   0  0  0  0  0  0  0  0  0  0  0  0
    0.9180   -2.2035    2.7353 F   0  0  0  0  0  0  0  0  0  0  0  0
   -2.6767    8.0572    1.7420 H   0  0  0  0  0  0  0  0  0  0  0  0
   -2.0445    8.2631    0.0948 H   0  0  0  0  0  0  0  0  0  0  0  0
   -1.0512    7.4748    1.3207 H   0  0  0  0  0  0  0  0  0  0  0  0
   -2.0674    5.7661   -0.2256 H   0  0  0  0  0  0  0  0  0  0  0  0
   -3.6760    6.4196    0.0858 H   0  0  0  0  0  0  0  0  0  0  0  0
   -1.2300    5.7025    2.7746 H   0  0  0  0  0  0  0  0  0  0  0  0
   -2.2133    4.2746    3.1406 H   0  0  0  0  0  0  0  0  0  0  0  0
   -0.3351    4.6633    0.7336 H   0  0  0  0  0  0  0  0  0  0  0  0
   -0.1307    3.5603    2.0947 H   0  0  0  0  0  0  0  0  0  0  0  0
   -2.6614    3.2996    0.7095 H   0  0  0  0  0  0  0  0  0  0  0  0
    0.1511    1.3217    1.4247 H   0  0  0  0  0  0  0  0  0  0  0  0
    0.9702   -0.0374    0.6672 H   0  0  0  0  0  0  0  0  0  0  0  0
    1.3162    1.6217    0.1112 H   0  0  0  0  0  0  0  0  0  0  0  0
   -2.6123    0.0096   -0.7621 H   0  0  0  0  0  0  0  0  0  0  0  0
   -1.4914   -1.0098    0.1839 H   0  0  0  0  0  0  0  0  0  0  0  0
   -2.1755    0.4558    0.9016 H   0  0  0  0  0  0  0  0  0  0  0  0
    0.7822   -0.9561   -3.0677 H   0  0  0  0  0  0  0  0  0  0  0  0
    1.8396   -2.9503   -3.0520 H   0  0  0  0  0  0  0  0  0  0  0  0
    2.4268   -5.0069   -1.7882 H   0  0  0  0  0  0  0  0  0  0  0  0
    1.7559   -5.1891    0.6407 H   0  0  0  0  0  0  0  0  0  0  0  0
  1  2  1  0
  1 26  1  0
  1 27  1  0
  1 28  1  0
  2  3  1  0
  2 29  1  0
  2 30  1  0
  3  4  1  0
  4  5  1  0
  4 31  1  0
  4 32  1  0
  5  6  1  0
  5 33  1  0
  5 34  1  0
  6  7  1  0
  6 35  1  0
  7  8  2  0
  7  9  2  0
  7 10  1  0
 10 11  1  0
 10 12  1  0
 10 13  1  0
 11 36  1  0
 11 37  1  0
 11 38  1  0
 12 39  1  0
 12 40  1  0
 12 41  1  0
 13 14  2  0
 13 15  1  0
 15 16  1  0
 15 42  1  0
 16 17  2  0
 16 21  1  0
 17 18  1  0
 17 43  1  0
 18 19  2  0
 18 44  1  0
 19 20  1  0
 19 45  1  0
 20 21  2  0
 20 22  1  0
 22 23  1  0
 22 24  1  0
 22 25  1  0
M  END
>  <group_name>  (1) 
BRI

>  <molecule_index>  (1) 
00638

>  <conformer_index>  (1) 
00

>  <method>  (1) 
b3lyp-d3bj

>  <basis>  (1) 
dzvp

>  <program>  (1) 
psi4

>  <initial_energy>  (1) 
-1072080.9533785656 kilocalorie / mole

>  <final_energy>  (1) 
-1072165.7448550854 kilocalorie / mole

$$$$
