BRI-00739-07
     RDKit          3D

 34 35  0  0  0  0  0  0  0  0999 V2000
    8.8287    1.3419    0.9029 C   0  0  0  0  0  0  0  0  0  0  0  0
    7.6019    0.5535    0.8691 N   0  0  0  0  0  0  0  0  0  0  0  0
    7.5798   -0.6670    0.3011 C   0  0  0  0  0  0  0  0  0  0  0  0
    8.5505   -1.2013   -0.2340 O   0  0  0  0  0  0  0  0  0  0  0  0
    6.2301   -1.4459    0.3679 C   0  0  2  0  0  0  0  0  0  0  0  0
    6.1002   -2.3378   -0.8303 C   0  0  0  0  0  0  0  0  0  0  0  0
    4.9907   -2.6821   -1.3758 N   0  0  0  0  0  0  0  0  0  0  0  0
    3.7838   -2.1631   -0.8715 C   0  0  0  0  0  0  0  0  0  0  0  0
    2.5872   -2.8151   -1.4999 C   0  0  0  0  0  0  0  0  0  0  0  0
    3.7193   -1.1629    0.0668 C   0  0  0  0  0  0  0  0  0  0  0  0
    4.9522   -0.6863    0.7051 C   0  0  0  0  0  0  0  0  0  0  0  0
    4.9526    0.2355    1.5285 O   0  0  0  0  0  0  0  0  0  0  0  0
    2.4478   -0.5065    0.4605 C   0  0  0  0  0  0  0  0  0  0  0  0
    1.5930    0.0506   -0.5026 C   0  0  0  0  0  0  0  0  0  0  0  0
    0.4068    0.6459   -0.0792 C   0  0  0  0  0  0  0  0  0  0  0  0
    0.0215    0.7354    1.1971 N   0  0  0  0  0  0  0  0  0  0  0  0
    0.8468    0.2193    2.1141 C   0  0  0  0  0  0  0  0  0  0  0  0
    2.0594   -0.4007    1.8013 C   0  0  0  0  0  0  0  0  0  0  0  0
   -0.5653    1.2456   -1.0800 C   0  0  0  0  0  0  0  0  0  0  0  0
   -0.0948    1.1469   -2.3512 F   0  0  0  0  0  0  0  0  0  0  0  0
   -1.7602    0.6129   -1.0481 F   0  0  0  0  0  0  0  0  0  0  0  0
   -0.7921    2.5536   -0.8374 F   0  0  0  0  0  0  0  0  0  0  0  0
    8.5952    2.3298    1.3035 H   0  0  0  0  0  0  0  0  0  0  0  0
    9.5875    0.8653    1.5322 H   0  0  0  0  0  0  0  0  0  0  0  0
    9.2391    1.4476   -0.1043 H   0  0  0  0  0  0  0  0  0  0  0  0
    6.7639    0.8625    1.3560 H   0  0  0  0  0  0  0  0  0  0  0  0
    6.3737   -2.1258    1.2256 H   0  0  0  0  0  0  0  0  0  0  0  0
    7.0287   -2.7148   -1.2563 H   0  0  0  0  0  0  0  0  0  0  0  0
    2.5045   -2.5079   -2.5490 H   0  0  0  0  0  0  0  0  0  0  0  0
    2.7486   -3.8978   -1.5091 H   0  0  0  0  0  0  0  0  0  0  0  0
    1.6535   -2.5852   -0.9884 H   0  0  0  0  0  0  0  0  0  0  0  0
    1.8511    0.0286   -1.5550 H   0  0  0  0  0  0  0  0  0  0  0  0
    0.5249    0.3043    3.1501 H   0  0  0  0  0  0  0  0  0  0  0  0
    2.6874   -0.7923    2.5941 H   0  0  0  0  0  0  0  0  0  0  0  0
  1  2  1  0
  1 23  1  0
  1 24  1  0
  1 25  1  0
  2  3  1  0
  2 26  1  0
  3  4  2  0
  3  5  1  0
  5  6  1  0
  5 11  1  0
  5 27  1  1
  6  7  2  0
  6 28  1  0
  7  8  1  0
  8  9  1  0
  8 10  2  0
  9 29  1  0
  9 30  1  0
  9 31  1  0
 10 11  1  0
 10 13  1  0
 11 12  2  0
 13 14  2  0
 13 18  1  0
 14 15  1  0
 14 32  1  0
 15 16  2  0
 15 19  1  0
 16 17  1  0
 17 18  2  0
 17 33  1  0
 18 34  1  0
 19 20  1  0
 19 21  1  0
 19 22  1  0
M  END
>  <group_name>  (1) 
BRI

>  <molecule_index>  (1) 
00739

>  <conformer_index>  (1) 
07

>  <method>  (1) 
b3lyp-d3bj

>  <basis>  (1) 
dzvp

>  <program>  (1) 
psi4

>  <initial_energy>  (1) 
-724833.4017372761 kilocalorie / mole

>  <final_energy>  (1) 
-724888.1463565403 kilocalorie / mole

$$$$
