BRI-01456-06
     RDKit          3D

 42 42  0  0  0  0  0  0  0  0999 V2000
   -1.6620    5.6392    2.5087 C   0  0  0  0  0  0  0  0  0  0  0  0
   -1.6502    4.1050    2.4415 C   0  0  0  0  0  0  0  0  0  0  0  0
   -2.0302    3.5020    3.8014 C   0  0  0  0  0  0  0  0  0  0  0  0
   -2.5868    3.5600    1.3499 C   0  0  0  0  0  0  0  0  0  0  0  0
   -2.2297    3.9710   -0.0941 C   0  0  2  0  0  0  0  0  0  0  0  0
   -3.2941    3.4575   -1.0850 C   0  0  0  0  0  0  0  0  0  0  0  0
   -4.6242    4.2331   -0.9888 C   0  0  2  0  0  0  0  0  0  0  0  0
   -5.8587    3.3357   -0.9901 C   0  0  0  0  0  0  0  0  0  0  0  0
   -6.0209    2.5694   -2.1206 N   0  0  0  0  0  0  0  0  0  0  0  0
   -6.6486    3.3228   -0.0576 O   0  0  0  0  0  0  0  0  0  0  0  0
   -4.7834    5.4286   -2.4066 S   0  0  0  0  0  0  0  0  0  0  0  0
   -3.4240    6.3116   -1.8333 O   0  0  0  0  0  0  0  0  0  0  0  0
   -6.0098    6.2340   -2.1709 O   0  0  0  0  0  0  0  0  0  0  0  0
   -0.8693    3.4312   -0.4754 C   0  0  0  0  0  0  0  0  0  0  0  0
   -0.7587    2.0997   -0.5870 N   0  0  0  0  0  0  0  0  0  0  0  0
    0.4300    1.5832   -0.9059 C   0  0  0  0  0  0  0  0  0  0  0  0
    1.5803    2.3382   -1.1302 C   0  0  0  0  0  0  0  0  0  0  0  0
    1.4652    3.7271   -1.0173 C   0  0  0  0  0  0  0  0  0  0  0  0
    0.2288    4.2795   -0.6905 C   0  0  0  0  0  0  0  0  0  0  0  0
    0.4486    0.0689   -1.0153 C   0  0  0  0  0  0  0  0  0  0  0  0
   -0.4075   -0.3697   -1.9675 F   0  0  0  0  0  0  0  0  0  0  0  0
    0.0928   -0.5198    0.1478 F   0  0  0  0  0  0  0  0  0  0  0  0
    1.6820   -0.3939   -1.3409 F   0  0  0  0  0  0  0  0  0  0  0  0
   -2.6758    6.0127    2.6987 H   0  0  0  0  0  0  0  0  0  0  0  0
   -1.0177    5.9987    3.3182 H   0  0  0  0  0  0  0  0  0  0  0  0
   -1.3089    6.1000    1.5806 H   0  0  0  0  0  0  0  0  0  0  0  0
   -0.6269    3.7809    2.2080 H   0  0  0  0  0  0  0  0  0  0  0  0
   -3.0483    3.7931    4.0873 H   0  0  0  0  0  0  0  0  0  0  0  0
   -1.3516    3.8456    4.5899 H   0  0  0  0  0  0  0  0  0  0  0  0
   -1.9905    2.4076    3.7756 H   0  0  0  0  0  0  0  0  0  0  0  0
   -2.5894    2.4646    1.3928 H   0  0  0  0  0  0  0  0  0  0  0  0
   -3.6117    3.8834    1.5730 H   0  0  0  0  0  0  0  0  0  0  0  0
   -2.1972    5.0589   -0.1744 H   0  0  0  0  0  0  0  0  0  0  0  0
   -2.8985    3.5158   -2.1076 H   0  0  0  0  0  0  0  0  0  0  0  0
   -3.4651    2.3951   -0.8897 H   0  0  0  0  0  0  0  0  0  0  0  0
   -4.6927    4.8614   -0.0998 H   0  0  0  0  0  0  0  0  0  0  0  0
   -5.2430    2.3898   -2.7427 H   0  0  0  0  0  0  0  0  0  0  0  0
   -6.7555    1.8716   -2.0923 H   0  0  0  0  0  0  0  0  0  0  0  0
   -3.2407    7.0067   -2.4929 H   0  0  0  0  0  0  0  0  0  0  0  0
    2.5209    1.8622   -1.3824 H   0  0  0  0  0  0  0  0  0  0  0  0
    2.3298    4.3644   -1.1825 H   0  0  0  0  0  0  0  0  0  0  0  0
    0.1061    5.3544   -0.5961 H   0  0  0  0  0  0  0  0  0  0  0  0
  1  2  1  0
  1 24  1  0
  1 25  1  0
  1 26  1  0
  2  3  1  0
  2  4  1  0
  2 27  1  0
  3 28  1  0
  3 29  1  0
  3 30  1  0
  4  5  1  0
  4 31  1  0
  4 32  1  0
  5  6  1  0
  5 14  1  0
  5 33  1  1
  6  7  1  0
  6 34  1  0
  6 35  1  0
  7  8  1  0
  7 11  1  0
  7 36  1  1
  8  9  1  0
  8 10  2  0
  9 37  1  0
  9 38  1  0
 11 12  1  1
 11 13  2  0
 12 39  1  0
 14 15  2  0
 14 19  1  0
 15 16  1  0
 16 17  2  0
 16 20  1  0
 17 18  1  0
 17 40  1  0
 18 19  2  0
 18 41  1  0
 19 42  1  0
 20 21  1  0
 20 22  1  0
 20 23  1  0
M  END
>  <group_name>  (1) 
BRI

>  <molecule_index>  (1) 
01456

>  <conformer_index>  (1) 
06

>  <method>  (1) 
b3lyp-d3bj

>  <basis>  (1) 
dzvp

>  <program>  (1) 
psi4

>  <initial_energy>  (1) 
-990157.9226518727 kilocalorie / mole

>  <final_energy>  (1) 
-990234.3672401053 kilocalorie / mole

$$$$
