GNT-00519-00
     RDKit          3D

 29 31  0  0  0  0  0  0  0  0999 V2000
   11.1810   45.4398   17.9450 C   0  0  0  0  0  0  0  0  0  0  0  0
    7.8204   41.0827   14.2204 O   0  0  0  0  0  0  0  0  0  0  0  0
    7.4013   42.3487   21.1460 F   0  0  0  0  0  0  0  0  0  0  0  0
    9.1156   41.0054   21.2139 F   0  0  0  0  0  0  0  0  0  0  0  0
    9.3090   43.0565   21.9310 F   0  0  0  0  0  0  0  0  0  0  0  0
   10.6305   43.8449   12.7583 C   0  0  0  0  0  0  0  0  0  0  0  0
   11.3739   44.5884   13.6841 C   0  0  0  0  0  0  0  0  0  0  0  0
    9.6802   42.9477   13.2274 C   0  0  0  0  0  0  0  0  0  0  0  0
   11.1466   44.4583   15.0506 C   0  0  0  0  0  0  0  0  0  0  0  0
    9.9686   43.8280   19.3788 C   0  0  0  0  0  0  0  0  0  0  0  0
    8.6356   42.0032   18.5903 N   0  0  0  0  0  0  0  0  0  0  0  0
    8.3640   41.5880   16.3685 N   0  0  0  0  0  0  0  0  0  0  0  0
   10.3333   44.1959   18.0745 C   0  0  0  0  0  0  0  0  0  0  0  0
    9.1463   42.7277   19.5812 C   0  0  0  0  0  0  0  0  0  0  0  0
    8.4740   41.7671   15.0040 C   0  0  0  0  0  0  0  0  0  0  0  0
    9.4528   42.8032   14.6036 C   0  0  0  0  0  0  0  0  0  0  0  0
    8.9736   42.3493   17.3465 C   0  0  0  0  0  0  0  0  0  0  0  0
   10.1624   43.5796   15.5587 C   0  0  0  0  0  0  0  0  0  0  0  0
    9.8624   43.4084   16.9930 C   0  0  0  0  0  0  0  0  0  0  0  0
    8.7401   42.2811   20.9740 C   0  0  0  0  0  0  0  0  0  0  0  0
   12.2145   45.2023   17.6724 H   0  0  0  0  0  0  0  0  0  0  0  0
   10.7813   46.1288   17.1965 H   0  0  0  0  0  0  0  0  0  0  0  0
   11.2122   45.9662   18.9012 H   0  0  0  0  0  0  0  0  0  0  0  0
   10.8078   43.9549   11.6923 H   0  0  0  0  0  0  0  0  0  0  0  0
   12.1436   45.2738   13.3390 H   0  0  0  0  0  0  0  0  0  0  0  0
    9.0992   42.3269   12.5531 H   0  0  0  0  0  0  0  0  0  0  0  0
   11.7681   45.0351   15.7148 H   0  0  0  0  0  0  0  0  0  0  0  0
   10.3200   44.4061   20.2251 H   0  0  0  0  0  0  0  0  0  0  0  0
    7.7210   40.8697   16.6911 H   0  0  0  0  0  0  0  0  0  0  0  0
  1 13  1  0
  1 21  1  0
  1 22  1  0
  1 23  1  0
  2 15  2  0
  3 20  1  0
  4 20  1  0
  5 20  1  0
  6  7  2  0
  6  8  1  0
  6 24  1  0
  7  9  1  0
  7 25  1  0
  8 16  2  0
  8 26  1  0
  9 18  2  0
  9 27  1  0
 10 13  1  0
 10 14  2  0
 10 28  1  0
 11 14  1  0
 11 17  2  0
 12 15  1  0
 12 17  1  0
 12 29  1  0
 13 19  2  0
 14 20  1  0
 15 16  1  0
 16 18  1  0
 17 19  1  0
 18 19  1  0
M  END
>  <group_name>  (1) 
GNT

>  <molecule_index>  (1) 
00519

>  <conformer_index>  (1) 
00

>  <method>  (1) 
b3lyp-d3bj

>  <basis>  (1) 
dzvp

>  <program>  (1) 
psi4

>  <initial_energy>  (1) 
-642193.0785253906 kilocalorie / mole

>  <final_energy>  (1) 
-642210.3643169501 kilocalorie / mole

$$$$
