JNS-01384-03
     RDKit          3D

 36 39  0  0  0  0  0  0  0  0999 V2000
   -0.6751   -0.1779   -0.2880 C   0  0  0  0  0  0  0  0  0  0  0  0
    0.1466    0.6285    0.7361 C   0  0  0  0  0  0  0  0  0  0  0  0
    1.6203    0.4405    0.5616 C   0  0  0  0  0  0  0  0  0  0  0  0
    2.4283    1.3430    0.0382 N   0  0  0  0  0  0  0  0  0  0  0  0
    3.6744    0.7393   -0.0178 C   0  0  0  0  0  0  0  0  0  0  0  0
    3.5992   -0.5840    0.4936 C   0  0  0  0  0  0  0  0  0  0  0  0
    4.5862   -1.4588    0.5916 N   0  0  0  0  0  0  0  0  0  0  0  0
    5.7672   -1.0020    0.1479 C   0  0  0  0  0  0  0  0  0  0  0  0
    5.9834    0.2822   -0.3782 C   0  0  0  0  0  0  0  0  0  0  0  0
    4.9169    1.1852   -0.4673 C   0  0  0  0  0  0  0  0  0  0  0  0
    6.8988   -2.0043    0.2513 C   0  0  0  0  0  0  0  0  0  0  0  0
    8.0664   -1.4946   -0.2181 F   0  0  0  0  0  0  0  0  0  0  0  0
    6.6403   -3.1273   -0.4609 F   0  0  0  0  0  0  0  0  0  0  0  0
    7.1171   -2.3872    1.5309 F   0  0  0  0  0  0  0  0  0  0  0  0
    2.2706   -0.7561    0.8683 N   0  0  0  0  0  0  0  0  0  0  0  0
    1.7181   -1.9362    1.4497 C   0  0  0  0  0  0  0  0  0  0  0  0
    1.2045   -1.8808    2.7538 C   0  0  0  0  0  0  0  0  0  0  0  0
    0.6796   -3.0668    3.2328 C   0  0  0  0  0  0  0  0  0  0  0  0
    0.6625   -4.2733    2.5133 C   0  0  0  0  0  0  0  0  0  0  0  0
    0.0730   -5.2659    3.3122 N   0  0  0  0  0  0  0  0  0  0  0  0
   -0.2126   -4.6365    4.4088 C   0  0  0  0  0  0  0  0  0  0  0  0
   -0.7889   -5.1129    5.5097 O   0  0  0  0  0  0  0  0  0  0  0  0
    0.1059   -3.3128    4.4736 O   0  0  0  0  0  0  0  0  0  0  0  0
    1.1994   -4.3139    1.2251 C   0  0  0  0  0  0  0  0  0  0  0  0
    1.7218   -3.1276    0.7037 C   0  0  0  0  0  0  0  0  0  0  0  0
   -0.3958    0.0989   -1.3090 H   0  0  0  0  0  0  0  0  0  0  0  0
   -0.5181   -1.2535   -0.1681 H   0  0  0  0  0  0  0  0  0  0  0  0
   -1.7422    0.0253   -0.1569 H   0  0  0  0  0  0  0  0  0  0  0  0
   -0.1567    0.3488    1.7497 H   0  0  0  0  0  0  0  0  0  0  0  0
   -0.0447    1.6973    0.6176 H   0  0  0  0  0  0  0  0  0  0  0  0
    6.9747    0.5642   -0.7127 H   0  0  0  0  0  0  0  0  0  0  0  0
    5.0494    2.1854   -0.8690 H   0  0  0  0  0  0  0  0  0  0  0  0
    1.2394   -0.9718    3.3445 H   0  0  0  0  0  0  0  0  0  0  0  0
   -0.9610   -6.0585    5.3510 H   0  0  0  0  0  0  0  0  0  0  0  0
    1.2106   -5.2347    0.6511 H   0  0  0  0  0  0  0  0  0  0  0  0
    2.1513   -3.1137   -0.2925 H   0  0  0  0  0  0  0  0  0  0  0  0
  1  2  1  0
  1 26  1  0
  1 27  1  0
  1 28  1  0
  2  3  1  0
  2 29  1  0
  2 30  1  0
  3  4  2  0
  3 15  1  0
  4  5  1  0
  5  6  2  0
  5 10  1  0
  6  7  1  0
  6 15  1  0
  7  8  2  0
  8  9  1  0
  8 11  1  0
  9 10  2  0
  9 31  1  0
 10 32  1  0
 11 12  1  0
 11 13  1  0
 11 14  1  0
 15 16  1  0
 16 17  2  0
 16 25  1  0
 17 18  1  0
 17 33  1  0
 18 19  2  0
 18 23  1  0
 19 20  1  0
 19 24  1  0
 20 21  2  0
 21 22  1  0
 21 23  1  0
 22 34  1  0
 24 25  2  0
 24 35  1  0
 25 36  1  0
M  END
>  <group_name>  (1) 
JNS

>  <molecule_index>  (1) 
01384

>  <conformer_index>  (1) 
03

>  <method>  (1) 
b3lyp-d3bj

>  <basis>  (1) 
dzvp

>  <program>  (1) 
psi4

>  <initial_energy>  (1) 
-806659.7774906455 kilocalorie / mole

>  <final_energy>  (1) 
-806720.6023788239 kilocalorie / mole

$$$$
