JNS-01494-06
     RDKit          3D

 42 45  0  0  0  0  0  0  0  0999 V2000
   -1.8503   -0.9924    0.5444 C   0  0  0  0  0  0  0  0  0  0  0  0
   -0.4764   -0.4109    0.1918 C   0  0  0  0  0  0  0  0  0  0  0  0
    0.4681   -0.3086    1.4115 C   0  0  2  0  0  0  0  0  0  0  0  0
   -0.0370    0.6847    2.4776 C   0  0  0  0  0  0  0  0  0  0  0  0
    1.8946   -0.0540    1.0080 C   0  0  0  0  0  0  0  0  0  0  0  0
    2.8682   -0.9072    1.2762 N   0  0  0  0  0  0  0  0  0  0  0  0
    4.0170   -0.3503    0.7415 C   0  0  0  0  0  0  0  0  0  0  0  0
    3.7115    0.8920    0.1251 C   0  0  0  0  0  0  0  0  0  0  0  0
    4.5520    1.7034   -0.4956 N   0  0  0  0  0  0  0  0  0  0  0  0
    5.8195    1.2630   -0.5170 C   0  0  0  0  0  0  0  0  0  0  0  0
    6.2598    0.0581    0.0553 C   0  0  0  0  0  0  0  0  0  0  0  0
    5.3437   -0.7785    0.7042 C   0  0  0  0  0  0  0  0  0  0  0  0
    6.7863    2.1840   -1.2325 C   0  0  0  0  0  0  0  0  0  0  0  0
    6.4444    2.3591   -2.5316 F   0  0  0  0  0  0  0  0  0  0  0  0
    8.0529    1.6937   -1.2173 F   0  0  0  0  0  0  0  0  0  0  0  0
    6.8282    3.4118   -0.6642 F   0  0  0  0  0  0  0  0  0  0  0  0
    2.3447    1.0692    0.3108 N   0  0  0  0  0  0  0  0  0  0  0  0
    1.6088    2.1969   -0.1775 C   0  0  0  0  0  0  0  0  0  0  0  0
    1.3582    3.2705    0.6611 C   0  0  0  0  0  0  0  0  0  0  0  0
    0.6385    4.3620    0.1416 C   0  0  0  0  0  0  0  0  0  0  0  0
    0.2138    4.3430   -1.2142 C   0  0  0  0  0  0  0  0  0  0  0  0
   -0.4462    5.5266   -1.4091 N   0  0  0  0  0  0  0  0  0  0  0  0
   -0.4737    6.3015   -0.2881 N   0  0  0  0  0  0  0  0  0  0  0  0
    0.1700    5.6180    0.6457 C   0  0  0  0  0  0  0  0  0  0  0  0
    0.4931    3.2635   -2.0709 C   0  0  0  0  0  0  0  0  0  0  0  0
    1.1957    2.1973   -1.5328 C   0  0  0  0  0  0  0  0  0  0  0  0
   -1.7538   -1.9740    1.0223 H   0  0  0  0  0  0  0  0  0  0  0  0
   -2.4571   -1.1191   -0.3581 H   0  0  0  0  0  0  0  0  0  0  0  0
   -2.4071   -0.3405    1.2244 H   0  0  0  0  0  0  0  0  0  0  0  0
   -0.6037    0.5769   -0.2621 H   0  0  0  0  0  0  0  0  0  0  0  0
   -0.0001   -1.0463   -0.5644 H   0  0  0  0  0  0  0  0  0  0  0  0
    0.5186   -1.2986    1.8764 H   0  0  0  0  0  0  0  0  0  0  0  0
   -0.9509    0.3050    2.9424 H   0  0  0  0  0  0  0  0  0  0  0  0
    0.7060    0.8187    3.2699 H   0  0  0  0  0  0  0  0  0  0  0  0
   -0.2623    1.6621    2.0437 H   0  0  0  0  0  0  0  0  0  0  0  0
    7.3063   -0.2152   -0.0109 H   0  0  0  0  0  0  0  0  0  0  0  0
    5.6504   -1.7173    1.1561 H   0  0  0  0  0  0  0  0  0  0  0  0
    1.7143    3.2583    1.6867 H   0  0  0  0  0  0  0  0  0  0  0  0
   -0.8749    5.8772   -2.2543 H   0  0  0  0  0  0  0  0  0  0  0  0
    0.2805    6.0365    1.6382 H   0  0  0  0  0  0  0  0  0  0  0  0
    0.1800    3.2593   -3.1109 H   0  0  0  0  0  0  0  0  0  0  0  0
    1.4424    1.3382   -2.1491 H   0  0  0  0  0  0  0  0  0  0  0  0
  1  2  1  0
  1 27  1  0
  1 28  1  0
  1 29  1  0
  2  3  1  0
  2 30  1  0
  2 31  1  0
  3  4  1  0
  3  5  1  0
  3 32  1  1
  4 33  1  0
  4 34  1  0
  4 35  1  0
  5  6  2  0
  5 17  1  0
  6  7  1  0
  7  8  2  0
  7 12  1  0
  8  9  1  0
  8 17  1  0
  9 10  2  0
 10 11  1  0
 10 13  1  0
 11 12  2  0
 11 36  1  0
 12 37  1  0
 13 14  1  0
 13 15  1  0
 13 16  1  0
 17 18  1  0
 18 19  2  0
 18 26  1  0
 19 20  1  0
 19 38  1  0
 20 21  2  0
 20 24  1  0
 21 22  1  0
 21 25  1  0
 22 23  1  0
 22 39  1  0
 23 24  2  0
 24 40  1  0
 25 26  2  0
 25 41  1  0
 26 42  1  0
M  END
>  <group_name>  (1) 
JNS

>  <molecule_index>  (1) 
01494

>  <conformer_index>  (1) 
06

>  <method>  (1) 
b3lyp-d3bj

>  <basis>  (1) 
dzvp

>  <program>  (1) 
psi4

>  <initial_energy>  (1) 
-796327.85249126 kilocalorie / mole

>  <final_energy>  (1) 
-796375.6795493286 kilocalorie / mole

$$$$
