JNS-01948-01
     RDKit          3D

 33 34  0  0  0  0  0  0  0  0999 V2000
   -0.4810    0.7515    1.0580 C   0  0  0  0  0  0  0  0  0  0  0  0
    0.1315   -0.1164    0.0873 O   0  0  0  0  0  0  0  0  0  0  0  0
    1.4309    0.1170   -0.2047 C   0  0  0  0  0  0  0  0  0  0  0  0
    2.0730    1.1060    0.4037 N   0  0  0  0  0  0  0  0  0  0  0  0
    3.3600    1.2921    0.0693 C   0  0  0  0  0  0  0  0  0  0  0  0
    4.0491    0.5271   -0.8565 C   0  0  0  0  0  0  0  0  0  0  0  0
    3.3624   -0.5272   -1.4964 C   0  0  0  0  0  0  0  0  0  0  0  0
    4.0652   -1.4411   -2.4703 C   0  0  0  0  0  0  0  0  0  0  0  0
    4.5661   -2.7364   -1.8033 C   0  0  2  0  0  0  0  0  0  0  0  0
    5.6109   -2.5193   -0.6865 C   0  0  0  0  0  0  0  0  0  0  0  0
    6.5095   -3.7617   -0.8097 C   0  0  0  0  0  0  0  0  0  0  0  0
    6.6166   -4.0294   -2.2557 N   0  0  0  0  0  0  0  0  0  0  0  0
    5.2840   -3.7007   -2.8055 C   0  0  0  0  0  0  0  0  0  0  0  0
    2.0299   -0.7283   -1.1613 C   0  0  0  0  0  0  0  0  0  0  0  0
    4.0329    2.4378    0.8006 C   0  0  0  0  0  0  0  0  0  0  0  0
    5.3320    2.5756    0.4318 F   0  0  0  0  0  0  0  0  0  0  0  0
    3.4202    3.6183    0.5525 F   0  0  0  0  0  0  0  0  0  0  0  0
    4.0163    2.2516    2.1412 F   0  0  0  0  0  0  0  0  0  0  0  0
   -1.5091    0.3992    1.1450 H   0  0  0  0  0  0  0  0  0  0  0  0
   -0.4578    1.7901    0.7182 H   0  0  0  0  0  0  0  0  0  0  0  0
    0.0326    0.6806    2.0202 H   0  0  0  0  0  0  0  0  0  0  0  0
    5.0879    0.7363   -1.0828 H   0  0  0  0  0  0  0  0  0  0  0  0
    4.9175   -0.9186   -2.9208 H   0  0  0  0  0  0  0  0  0  0  0  0
    3.3796   -1.7001   -3.2852 H   0  0  0  0  0  0  0  0  0  0  0  0
    3.6971   -3.2492   -1.3756 H   0  0  0  0  0  0  0  0  0  0  0  0
    5.1576   -2.3964    0.3014 H   0  0  0  0  0  0  0  0  0  0  0  0
    6.2063   -1.6201   -0.8902 H   0  0  0  0  0  0  0  0  0  0  0  0
    7.5013   -3.6364   -0.3665 H   0  0  0  0  0  0  0  0  0  0  0  0
    6.0362   -4.6254   -0.3257 H   0  0  0  0  0  0  0  0  0  0  0  0
    7.2955   -3.3774   -2.6445 H   0  0  0  0  0  0  0  0  0  0  0  0
    4.7030   -4.6226   -2.9183 H   0  0  0  0  0  0  0  0  0  0  0  0
    5.3881   -3.2607   -3.8027 H   0  0  0  0  0  0  0  0  0  0  0  0
    1.4372   -1.5163   -1.6166 H   0  0  0  0  0  0  0  0  0  0  0  0
  1  2  1  0
  1 19  1  0
  1 20  1  0
  1 21  1  0
  2  3  1  0
  3  4  2  0
  3 14  1  0
  4  5  1  0
  5  6  2  0
  5 15  1  0
  6  7  1  0
  6 22  1  0
  7  8  1  0
  7 14  2  0
  8  9  1  0
  8 23  1  0
  8 24  1  0
  9 10  1  0
  9 13  1  0
  9 25  1  1
 10 11  1  0
 10 26  1  0
 10 27  1  0
 11 12  1  0
 11 28  1  0
 11 29  1  0
 12 13  1  0
 12 30  1  0
 13 31  1  0
 13 32  1  0
 14 33  1  0
 15 16  1  0
 15 17  1  0
 15 18  1  0
M  END
>  <group_name>  (1) 
JNS

>  <molecule_index>  (1) 
01948

>  <conformer_index>  (1) 
01

>  <method>  (1) 
b3lyp-d3bj

>  <basis>  (1) 
dzvp

>  <program>  (1) 
psi4

>  <initial_energy>  (1) 
-596579.9737990963 kilocalorie / mole

>  <final_energy>  (1) 
-596614.428490424 kilocalorie / mole

$$$$
