JNS-01358-02
     RDKit          3D

 41 45  0  0  0  0  0  0  0  0999 V2000
   -2.6793   -2.4662   -0.5626 F   0  0  0  0  0  0  0  0  0  0  0  0
   -2.0826   -1.2580   -0.5009 C   0  0  0  0  0  0  0  0  0  0  0  0
   -2.8791   -0.2148   -0.5935 N   0  0  0  0  0  0  0  0  0  0  0  0
   -2.2896    0.9924   -0.5387 C   0  0  0  0  0  0  0  0  0  0  0  0
   -0.9192    1.1763   -0.3759 C   0  0  0  0  0  0  0  0  0  0  0  0
   -0.0973    0.0390   -0.2679 C   0  0  0  0  0  0  0  0  0  0  0  0
   -0.6981   -1.2226   -0.3437 C   0  0  0  0  0  0  0  0  0  0  0  0
    1.3653    0.1098   -0.1291 C   0  0  0  0  0  0  0  0  0  0  0  0
    2.1753   -0.8189   -0.6117 N   0  0  0  0  0  0  0  0  0  0  0  0
    3.4522   -0.3777   -0.3288 C   0  0  0  0  0  0  0  0  0  0  0  0
    3.3979    0.8640    0.3581 C   0  0  0  0  0  0  0  0  0  0  0  0
    4.4237    1.5802    0.7904 N   0  0  0  0  0  0  0  0  0  0  0  0
    5.6193    1.0385    0.5215 C   0  0  0  0  0  0  0  0  0  0  0  0
    5.8170   -0.1800   -0.1530 C   0  0  0  0  0  0  0  0  0  0  0  0
    4.7136   -0.9163   -0.5938 C   0  0  0  0  0  0  0  0  0  0  0  0
    6.7970    1.8610    1.0076 C   0  0  0  0  0  0  0  0  0  0  0  0
    6.8013    3.0981    0.4573 F   0  0  0  0  0  0  0  0  0  0  0  0
    7.9802    1.2777    0.6921 F   0  0  0  0  0  0  0  0  0  0  0  0
    6.7745    2.0210    2.3503 F   0  0  0  0  0  0  0  0  0  0  0  0
    2.0451    1.1632    0.4830 N   0  0  0  0  0  0  0  0  0  0  0  0
    1.5157    2.2306    1.2726 C   0  0  0  0  0  0  0  0  0  0  0  0
    0.6828    1.9345    2.3651 C   0  0  0  0  0  0  0  0  0  0  0  0
    0.1681    2.9813    3.1104 C   0  0  0  0  0  0  0  0  0  0  0  0
    0.5044    4.3100    2.7815 C   0  0  0  0  0  0  0  0  0  0  0  0
   -0.1271    5.1775    3.6799 N   0  0  0  0  0  0  0  0  0  0  0  0
   -0.8830    4.4999    4.6328 C   0  0  0  0  0  0  0  0  0  0  0  0
   -1.5183    5.0197    5.5317 O   0  0  0  0  0  0  0  0  0  0  0  0
   -0.7436    3.0029    4.3110 C   0  0  0  0  0  0  0  0  0  0  0  0
    1.3478    4.6118    1.7157 C   0  0  0  0  0  0  0  0  0  0  0  0
    1.8508    3.5484    0.9557 C   0  0  0  0  0  0  0  0  0  0  0  0
   -2.9522    1.8501   -0.6311 H   0  0  0  0  0  0  0  0  0  0  0  0
   -0.5103    2.1787   -0.3498 H   0  0  0  0  0  0  0  0  0  0  0  0
   -0.1124   -2.1326   -0.2865 H   0  0  0  0  0  0  0  0  0  0  0  0
    6.8250   -0.5378   -0.3263 H   0  0  0  0  0  0  0  0  0  0  0  0
    4.8291   -1.8612   -1.1163 H   0  0  0  0  0  0  0  0  0  0  0  0
    0.4488    0.9016    2.6063 H   0  0  0  0  0  0  0  0  0  0  0  0
   -0.0390    6.1864    3.6868 H   0  0  0  0  0  0  0  0  0  0  0  0
   -1.7347    2.5817    4.1150 H   0  0  0  0  0  0  0  0  0  0  0  0
   -0.3342    2.4829    5.1826 H   0  0  0  0  0  0  0  0  0  0  0  0
    1.6151    5.6361    1.4729 H   0  0  0  0  0  0  0  0  0  0  0  0
    2.5127    3.7430    0.1186 H   0  0  0  0  0  0  0  0  0  0  0  0
  1  2  1  0
  2  3  2  0
  2  7  1  0
  3  4  1  0
  4  5  2  0
  4 31  1  0
  5  6  1  0
  5 32  1  0
  6  7  2  0
  6  8  1  0
  7 33  1  0
  8  9  2  0
  8 20  1  0
  9 10  1  0
 10 11  2  0
 10 15  1  0
 11 12  1  0
 11 20  1  0
 12 13  2  0
 13 14  1  0
 13 16  1  0
 14 15  2  0
 14 34  1  0
 15 35  1  0
 16 17  1  0
 16 18  1  0
 16 19  1  0
 20 21  1  0
 21 22  2  0
 21 30  1  0
 22 23  1  0
 22 36  1  0
 23 24  2  0
 23 28  1  0
 24 25  1  0
 24 29  1  0
 25 26  1  0
 25 37  1  0
 26 27  2  0
 26 28  1  0
 28 38  1  0
 28 39  1  0
 29 30  2  0
 29 40  1  0
 30 41  1  0
M  END
>  <group_name>  (1) 
JNS

>  <molecule_index>  (1) 
01358

>  <conformer_index>  (1) 
02

>  <method>  (1) 
b3lyp-d3bj

>  <basis>  (1) 
dzvp

>  <program>  (1) 
psi4

>  <initial_energy>  (1) 
-952168.3000212257 kilocalorie / mole

>  <final_energy>  (1) 
-952214.6681245904 kilocalorie / mole

$$$$
