JNS-01614-05
     RDKit          3D

 39 42  0  0  0  0  0  0  0  0999 V2000
   -0.5515    1.6562    0.0614 C   0  0  0  0  0  0  0  0  0  0  0  0
   -0.0637    0.2131   -0.1015 C   0  0  0  0  0  0  0  0  0  0  0  0
    1.4308    0.1017   -0.0874 C   0  0  0  0  0  0  0  0  0  0  0  0
    2.2516    1.0209    0.3849 N   0  0  0  0  0  0  0  0  0  0  0  0
    3.5268    0.5222    0.1785 C   0  0  0  0  0  0  0  0  0  0  0  0
    3.4567   -0.7512   -0.4484 C   0  0  0  0  0  0  0  0  0  0  0  0
    4.4727   -1.5184   -0.8086 N   0  0  0  0  0  0  0  0  0  0  0  0
    5.6772   -0.9981   -0.5275 C   0  0  0  0  0  0  0  0  0  0  0  0
    5.8896    0.2441    0.0921 C   0  0  0  0  0  0  0  0  0  0  0  0
    4.7931    1.0340    0.4591 C   0  0  0  0  0  0  0  0  0  0  0  0
    6.8425   -1.8716   -0.9440 C   0  0  0  0  0  0  0  0  0  0  0  0
    8.0354   -1.2980   -0.6417 F   0  0  0  0  0  0  0  0  0  0  0  0
    6.8140   -3.0781   -0.3312 F   0  0  0  0  0  0  0  0  0  0  0  0
    6.8412   -2.1050   -2.2793 F   0  0  0  0  0  0  0  0  0  0  0  0
    2.0993   -1.0092   -0.6038 N   0  0  0  0  0  0  0  0  0  0  0  0
    1.5361   -2.1736   -1.2105 C   0  0  0  0  0  0  0  0  0  0  0  0
    0.6684   -2.9793   -0.4914 C   0  0  0  0  0  0  0  0  0  0  0  0
    0.1296   -4.1042   -1.1450 C   0  0  0  0  0  0  0  0  0  0  0  0
    0.5067   -4.3853   -2.4828 C   0  0  0  0  0  0  0  0  0  0  0  0
   -0.1649   -5.5308   -2.8228 N   0  0  0  0  0  0  0  0  0  0  0  0
   -0.9390   -6.0041   -1.8063 N   0  0  0  0  0  0  0  0  0  0  0  0
   -0.7722   -5.1611   -0.7977 C   0  0  0  0  0  0  0  0  0  0  0  0
    1.4067   -3.5833   -3.2160 C   0  0  0  0  0  0  0  0  0  0  0  0
    1.7947   -3.9302   -4.6298 C   0  0  0  0  0  0  0  0  0  0  0  0
    1.9011   -2.4724   -2.5488 C   0  0  0  0  0  0  0  0  0  0  0  0
   -1.6453    1.6828    0.0513 H   0  0  0  0  0  0  0  0  0  0  0  0
   -0.1981    2.0849    1.0015 H   0  0  0  0  0  0  0  0  0  0  0  0
   -0.1809    2.2886   -0.7500 H   0  0  0  0  0  0  0  0  0  0  0  0
   -0.4407   -0.2249   -1.0323 H   0  0  0  0  0  0  0  0  0  0  0  0
   -0.4736   -0.4093    0.7041 H   0  0  0  0  0  0  0  0  0  0  0  0
    6.9014    0.5834    0.2795 H   0  0  0  0  0  0  0  0  0  0  0  0
    4.9217    2.0005    0.9375 H   0  0  0  0  0  0  0  0  0  0  0  0
    0.4272   -2.7526    0.5425 H   0  0  0  0  0  0  0  0  0  0  0  0
   -0.1412   -6.0406   -3.6945 H   0  0  0  0  0  0  0  0  0  0  0  0
   -1.2933   -5.3313    0.1362 H   0  0  0  0  0  0  0  0  0  0  0  0
    2.5009   -3.2020   -5.0349 H   0  0  0  0  0  0  0  0  0  0  0  0
    2.2706   -4.9171   -4.6777 H   0  0  0  0  0  0  0  0  0  0  0  0
    0.9190   -3.9533   -5.2900 H   0  0  0  0  0  0  0  0  0  0  0  0
    2.6020   -1.8124   -3.0504 H   0  0  0  0  0  0  0  0  0  0  0  0
  1  2  1  0
  1 26  1  0
  1 27  1  0
  1 28  1  0
  2  3  1  0
  2 29  1  0
  2 30  1  0
  3  4  2  0
  3 15  1  0
  4  5  1  0
  5  6  2  0
  5 10  1  0
  6  7  1  0
  6 15  1  0
  7  8  2  0
  8  9  1  0
  8 11  1  0
  9 10  2  0
  9 31  1  0
 10 32  1  0
 11 12  1  0
 11 13  1  0
 11 14  1  0
 15 16  1  0
 16 17  2  0
 16 25  1  0
 17 18  1  0
 17 33  1  0
 18 19  2  0
 18 22  1  0
 19 20  1  0
 19 23  1  0
 20 21  1  0
 20 34  1  0
 21 22  2  0
 22 35  1  0
 23 24  1  0
 23 25  2  0
 24 36  1  0
 24 37  1  0
 24 38  1  0
 25 39  1  0
M  END
>  <group_name>  (1) 
JNS

>  <molecule_index>  (1) 
01614

>  <conformer_index>  (1) 
05

>  <method>  (1) 
b3lyp-d3bj

>  <basis>  (1) 
dzvp

>  <program>  (1) 
psi4

>  <initial_energy>  (1) 
-771700.3906148253 kilocalorie / mole

>  <final_energy>  (1) 
-771705.3601380733 kilocalorie / mole

$$$$
