JNS-01795-02
     RDKit          3D

 43 46  0  0  0  0  0  0  0  0999 V2000
   -0.2513    2.0577   -0.3065 C   0  0  0  0  0  0  0  0  0  0  0  0
   -0.0384    0.5624   -0.6121 C   0  0  0  0  0  0  0  0  0  0  0  0
   -0.9397   -0.2688    0.3286 C   0  0  0  0  0  0  0  0  0  0  0  0
   -0.4341    0.2972   -2.0835 C   0  0  0  0  0  0  0  0  0  0  0  0
    1.4274    0.2321   -0.3913 C   0  0  0  0  0  0  0  0  0  0  0  0
    2.3293    1.1473   -0.0789 N   0  0  0  0  0  0  0  0  0  0  0  0
    3.5330    0.4784    0.0367 C   0  0  0  0  0  0  0  0  0  0  0  0
    3.3417   -0.9040   -0.2181 C   0  0  0  0  0  0  0  0  0  0  0  0
    4.2635   -1.8535   -0.1940 N   0  0  0  0  0  0  0  0  0  0  0  0
    5.4942   -1.4118    0.1058 C   0  0  0  0  0  0  0  0  0  0  0  0
    5.8234   -0.0730    0.3769 C   0  0  0  0  0  0  0  0  0  0  0  0
    4.8240    0.9069    0.3445 C   0  0  0  0  0  0  0  0  0  0  0  0
    6.5506   -2.4965    0.1443 C   0  0  0  0  0  0  0  0  0  0  0  0
    7.7824   -1.9913    0.4162 F   0  0  0  0  0  0  0  0  0  0  0  0
    6.6432   -3.1555   -1.0344 F   0  0  0  0  0  0  0  0  0  0  0  0
    6.2847   -3.4232    1.0969 F   0  0  0  0  0  0  0  0  0  0  0  0
    1.9871   -1.0474   -0.4945 N   0  0  0  0  0  0  0  0  0  0  0  0
    1.3906   -2.3155   -0.8048 C   0  0  0  0  0  0  0  0  0  0  0  0
    1.2961   -2.7208   -2.1295 C   0  0  0  0  0  0  0  0  0  0  0  0
    0.7429   -3.9817   -2.4104 C   0  0  0  0  0  0  0  0  0  0  0  0
    0.3185   -4.8054   -1.3264 C   0  0  0  0  0  0  0  0  0  0  0  0
   -0.1742   -5.9750   -1.8730 N   0  0  0  0  0  0  0  0  0  0  0  0
   -0.0685   -5.9165   -3.2548 C   0  0  0  0  0  0  0  0  0  0  0  0
    0.4851   -4.7130   -3.6220 C   0  0  0  0  0  0  0  0  0  0  0  0
    0.4413   -4.4046    0.0101 C   0  0  0  0  0  0  0  0  0  0  0  0
    0.9864   -3.1508    0.2588 C   0  0  0  0  0  0  0  0  0  0  0  0
    0.0142    2.2947    0.7267 H   0  0  0  0  0  0  0  0  0  0  0  0
   -1.3061    2.3063   -0.4633 H   0  0  0  0  0  0  0  0  0  0  0  0
    0.3586    2.6889   -0.9566 H   0  0  0  0  0  0  0  0  0  0  0  0
   -1.9759    0.0708    0.2261 H   0  0  0  0  0  0  0  0  0  0  0  0
   -0.9122   -1.3343    0.0949 H   0  0  0  0  0  0  0  0  0  0  0  0
   -0.6433   -0.1353    1.3743 H   0  0  0  0  0  0  0  0  0  0  0  0
    0.2250    0.8395   -2.7693 H   0  0  0  0  0  0  0  0  0  0  0  0
   -0.3995   -0.7648   -2.3328 H   0  0  0  0  0  0  0  0  0  0  0  0
   -1.4582    0.6476   -2.2508 H   0  0  0  0  0  0  0  0  0  0  0  0
    6.8485    0.1906    0.6093 H   0  0  0  0  0  0  0  0  0  0  0  0
    5.0425    1.9508    0.5496 H   0  0  0  0  0  0  0  0  0  0  0  0
    1.6524   -2.0708   -2.9232 H   0  0  0  0  0  0  0  0  0  0  0  0
   -0.5274   -6.7624   -1.3486 H   0  0  0  0  0  0  0  0  0  0  0  0
   -0.3992   -6.7453   -3.8667 H   0  0  0  0  0  0  0  0  0  0  0  0
    0.6871   -4.3912   -4.6350 H   0  0  0  0  0  0  0  0  0  0  0  0
    0.1312   -5.0473    0.8297 H   0  0  0  0  0  0  0  0  0  0  0  0
    1.1102   -2.7981    1.2779 H   0  0  0  0  0  0  0  0  0  0  0  0
  1  2  1  0
  1 27  1  0
  1 28  1  0
  1 29  1  0
  2  3  1  0
  2  4  1  0
  2  5  1  0
  3 30  1  0
  3 31  1  0
  3 32  1  0
  4 33  1  0
  4 34  1  0
  4 35  1  0
  5  6  2  0
  5 17  1  0
  6  7  1  0
  7  8  2  0
  7 12  1  0
  8  9  1  0
  8 17  1  0
  9 10  2  0
 10 11  1  0
 10 13  1  0
 11 12  2  0
 11 36  1  0
 12 37  1  0
 13 14  1  0
 13 15  1  0
 13 16  1  0
 17 18  1  0
 18 19  2  0
 18 26  1  0
 19 20  1  0
 19 38  1  0
 20 21  2  0
 20 24  1  0
 21 22  1  0
 21 25  1  0
 22 23  1  0
 22 39  1  0
 23 24  2  0
 23 40  1  0
 24 41  1  0
 25 26  2  0
 25 42  1  0
 26 43  1  0
M  END
>  <group_name>  (1) 
JNS

>  <molecule_index>  (1) 
01795

>  <conformer_index>  (1) 
02

>  <method>  (1) 
b3lyp-d3bj

>  <basis>  (1) 
dzvp

>  <program>  (1) 
psi4

>  <initial_energy>  (1) 
-786239.809845912 kilocalorie / mole

>  <final_energy>  (1) 
-786318.4607816249 kilocalorie / mole

$$$$
