JNS-01448-02
     RDKit          3D

 43 47  0  0  0  0  0  0  0  0999 V2000
    0.0219    0.2774   -4.0489 F   0  0  0  0  0  0  0  0  0  0  0  0
   -0.7470   -0.5791   -3.3352 C   0  0  0  0  0  0  0  0  0  0  0  0
   -0.0457   -1.7353   -3.2098 F   0  0  0  0  0  0  0  0  0  0  0  0
   -1.8510   -0.8410   -4.0426 F   0  0  0  0  0  0  0  0  0  0  0  0
   -1.0911   -0.0040   -1.9816 C   0  0  0  0  0  0  0  0  0  0  0  0
   -2.3178    0.0579   -1.5181 N   0  0  0  0  0  0  0  0  0  0  0  0
   -2.1866    0.6366   -0.2669 C   0  0  0  0  0  0  0  0  0  0  0  0
   -0.8208    0.9186   -0.0003 C   0  0  0  0  0  0  0  0  0  0  0  0
   -0.3218    1.4716    1.0952 N   0  0  0  0  0  0  0  0  0  0  0  0
   -1.2427    1.7769    2.0166 C   0  0  0  0  0  0  0  0  0  0  0  0
   -2.6264    1.5528    1.8815 C   0  0  0  0  0  0  0  0  0  0  0  0
   -3.1234    0.9686    0.7143 C   0  0  0  0  0  0  0  0  0  0  0  0
   -0.6766    2.4065    3.2769 C   0  0  0  0  0  0  0  0  0  0  0  0
   -0.0135    3.5528    3.0058 F   0  0  0  0  0  0  0  0  0  0  0  0
   -1.6546    2.7083    4.1677 F   0  0  0  0  0  0  0  0  0  0  0  0
    0.1908    1.5770    3.8999 F   0  0  0  0  0  0  0  0  0  0  0  0
   -0.1234    0.4949   -1.1255 N   0  0  0  0  0  0  0  0  0  0  0  0
    1.2995    0.5789   -1.3064 C   0  0  0  0  0  0  0  0  0  0  0  0
    1.8705    1.8130   -1.5709 C   0  0  0  0  0  0  0  0  0  0  0  0
    3.2675    1.8598   -1.7136 C   0  0  0  0  0  0  0  0  0  0  0  0
    4.0307    0.6676   -1.5970 C   0  0  0  0  0  0  0  0  0  0  0  0
    5.3352    1.0499   -1.7601 N   0  0  0  0  0  0  0  0  0  0  0  0
    5.4667    2.3916   -1.9574 N   0  0  0  0  0  0  0  0  0  0  0  0
    4.2394    2.8872   -1.9414 C   0  0  0  0  0  0  0  0  0  0  0  0
    3.4505   -0.5925   -1.3277 C   0  0  0  0  0  0  0  0  0  0  0  0
    2.0672   -0.5994   -1.1742 C   0  0  0  0  0  0  0  0  0  0  0  0
    4.2661   -1.8214   -1.1954 C   0  0  0  0  0  0  0  0  0  0  0  0
    5.2814   -2.1135   -2.1241 C   0  0  0  0  0  0  0  0  0  0  0  0
    6.0481   -3.2745   -1.9998 C   0  0  0  0  0  0  0  0  0  0  0  0
    5.8140   -4.1626   -0.9448 C   0  0  0  0  0  0  0  0  0  0  0  0
    4.8043   -3.8826   -0.0177 C   0  0  0  0  0  0  0  0  0  0  0  0
    4.0383   -2.7216   -0.1407 C   0  0  0  0  0  0  0  0  0  0  0  0
   -3.2948    1.8366    2.6856 H   0  0  0  0  0  0  0  0  0  0  0  0
   -4.1837    0.7809    0.5740 H   0  0  0  0  0  0  0  0  0  0  0  0
    1.2537    2.7022   -1.6555 H   0  0  0  0  0  0  0  0  0  0  0  0
    6.1656    0.4811   -1.6667 H   0  0  0  0  0  0  0  0  0  0  0  0
    4.0844    3.9491   -2.0855 H   0  0  0  0  0  0  0  0  0  0  0  0
    1.5559   -1.5355   -0.9738 H   0  0  0  0  0  0  0  0  0  0  0  0
    5.4409   -1.4530   -2.9729 H   0  0  0  0  0  0  0  0  0  0  0  0
    6.8202   -3.4913   -2.7335 H   0  0  0  0  0  0  0  0  0  0  0  0
    6.4114   -5.0650   -0.8469 H   0  0  0  0  0  0  0  0  0  0  0  0
    4.6194   -4.5645    0.8081 H   0  0  0  0  0  0  0  0  0  0  0  0
    3.2733   -2.4964    0.5976 H   0  0  0  0  0  0  0  0  0  0  0  0
  1  2  1  0
  2  3  1  0
  2  4  1  0
  2  5  1  0
  5  6  2  0
  5 17  1  0
  6  7  1  0
  7  8  2  0
  7 12  1  0
  8  9  1  0
  8 17  1  0
  9 10  2  0
 10 11  1  0
 10 13  1  0
 11 12  2  0
 11 33  1  0
 12 34  1  0
 13 14  1  0
 13 15  1  0
 13 16  1  0
 17 18  1  0
 18 19  2  0
 18 26  1  0
 19 20  1  0
 19 35  1  0
 20 21  2  0
 20 24  1  0
 21 22  1  0
 21 25  1  0
 22 23  1  0
 22 36  1  0
 23 24  2  0
 24 37  1  0
 25 26  2  0
 25 27  1  0
 26 38  1  0
 27 28  2  0
 27 32  1  0
 28 29  1  0
 28 39  1  0
 29 30  2  0
 29 40  1  0
 30 31  1  0
 30 41  1  0
 31 32  2  0
 31 42  1  0
 32 43  1  0
M  END
>  <group_name>  (1) 
JNS

>  <molecule_index>  (1) 
01448

>  <conformer_index>  (1) 
02

>  <method>  (1) 
b3lyp-d3bj

>  <basis>  (1) 
dzvp

>  <program>  (1) 
psi4

>  <initial_energy>  (1) 
-1054190.1167245116 kilocalorie / mole

>  <final_energy>  (1) 
-1054230.5460561262 kilocalorie / mole

$$$$
