JNS-02536-04
     RDKit          3D

 44 47  0  0  0  0  0  0  0  0999 V2000
   -6.2139   -4.7441   -0.5611 C   0  0  0  0  0  0  0  0  0  0  0  0
   -5.1052   -3.7301   -0.4019 C   0  0  0  0  0  0  0  0  0  0  0  0
   -4.5118   -3.5164    0.8535 C   0  0  0  0  0  0  0  0  0  0  0  0
   -3.4838   -2.5891    1.0150 C   0  0  0  0  0  0  0  0  0  0  0  0
   -3.0330   -1.8536   -0.0855 C   0  0  0  0  0  0  0  0  0  0  0  0
   -3.6035   -2.0571   -1.3424 C   0  0  0  0  0  0  0  0  0  0  0  0
   -4.6338   -2.9889   -1.4940 C   0  0  0  0  0  0  0  0  0  0  0  0
   -1.9962   -0.8845    0.0753 N   0  0  0  0  0  0  0  0  0  0  0  0
   -0.6693   -1.1814   -0.0377 C   0  0  0  0  0  0  0  0  0  0  0  0
    0.0297   -2.6423   -0.3324 S   0  0  0  0  0  0  0  0  0  0  0  0
    0.0164    0.0349    0.2119 N   0  0  0  0  0  0  0  0  0  0  0  0
   -0.8543    1.0731    0.5423 C   0  0  0  0  0  0  0  0  0  0  0  0
   -0.5337    2.2073    0.8475 O   0  0  0  0  0  0  0  0  0  0  0  0
   -2.2558    0.5041    0.4352 C   0  0  0  0  0  0  0  0  0  0  0  0
   -3.1973    1.3811   -0.4474 C   0  0  0  0  0  0  0  0  0  0  0  0
   -3.7528    2.0283    0.8498 C   0  0  0  0  0  0  0  0  0  0  0  0
   -3.1552    0.8476    1.6622 C   0  0  0  0  0  0  0  0  0  0  0  0
    1.4149    0.2141    0.0648 C   0  0  0  0  0  0  0  0  0  0  0  0
    1.9294   -0.0883   -1.1263 N   0  0  0  0  0  0  0  0  0  0  0  0
    3.2333    0.0588   -1.3074 C   0  0  0  0  0  0  0  0  0  0  0  0
    4.0989    0.5460   -0.3057 C   0  0  0  0  0  0  0  0  0  0  0  0
    3.5329    0.8927    0.9312 C   0  0  0  0  0  0  0  0  0  0  0  0
    2.1670    0.7227    1.1254 C   0  0  0  0  0  0  0  0  0  0  0  0
    5.5110    0.7061   -0.5026 C   0  0  0  0  0  0  0  0  0  0  0  0
    6.6603    0.8525   -0.6176 N   0  0  0  0  0  0  0  0  0  0  0  0
    3.7709   -0.3117   -2.6882 C   0  0  0  0  0  0  0  0  0  0  0  0
    2.8060   -0.7402   -3.5077 F   0  0  0  0  0  0  0  0  0  0  0  0
    4.3673    0.7598   -3.2680 F   0  0  0  0  0  0  0  0  0  0  0  0
    4.7044   -1.2879   -2.5891 F   0  0  0  0  0  0  0  0  0  0  0  0
   -7.0695   -4.4971    0.0770 H   0  0  0  0  0  0  0  0  0  0  0  0
   -5.8734   -5.7454   -0.2755 H   0  0  0  0  0  0  0  0  0  0  0  0
   -6.5677   -4.7922   -1.5941 H   0  0  0  0  0  0  0  0  0  0  0  0
   -4.8540   -4.0895    1.7124 H   0  0  0  0  0  0  0  0  0  0  0  0
   -3.0138   -2.4440    1.9836 H   0  0  0  0  0  0  0  0  0  0  0  0
   -3.2268   -1.5018   -2.1966 H   0  0  0  0  0  0  0  0  0  0  0  0
   -5.0694   -3.1454   -2.4778 H   0  0  0  0  0  0  0  0  0  0  0  0
   -3.9380    0.7496   -0.9433 H   0  0  0  0  0  0  0  0  0  0  0  0
   -2.7099    2.0269   -1.1812 H   0  0  0  0  0  0  0  0  0  0  0  0
   -4.8351    2.1615    0.9054 H   0  0  0  0  0  0  0  0  0  0  0  0
   -3.2537    2.9710    1.0780 H   0  0  0  0  0  0  0  0  0  0  0  0
   -2.6332    1.0747    2.5947 H   0  0  0  0  0  0  0  0  0  0  0  0
   -3.8848    0.0524    1.8297 H   0  0  0  0  0  0  0  0  0  0  0  0
    4.1656    1.2790    1.7238 H   0  0  0  0  0  0  0  0  0  0  0  0
    1.6924    0.9745    2.0665 H   0  0  0  0  0  0  0  0  0  0  0  0
  1  2  1  0
  1 30  1  0
  1 31  1  0
  1 32  1  0
  2  3  2  0
  2  7  1  0
  3  4  1  0
  3 33  1  0
  4  5  2  0
  4 34  1  0
  5  6  1  0
  5  8  1  0
  6  7  2  0
  6 35  1  0
  7 36  1  0
  8  9  1  0
  8 14  1  0
  9 10  2  0
  9 11  1  0
 11 12  1  0
 11 18  1  0
 12 13  2  0
 12 14  1  0
 14 15  1  0
 14 17  1  0
 15 16  1  0
 15 37  1  0
 15 38  1  0
 16 17  1  0
 16 39  1  0
 16 40  1  0
 17 41  1  0
 17 42  1  0
 18 19  2  0
 18 23  1  0
 19 20  1  0
 20 21  2  0
 20 26  1  0
 21 22  1  0
 21 24  1  0
 22 23  2  0
 22 43  1  0
 23 44  1  0
 24 25  3  0
 26 27  1  0
 26 28  1  0
 26 29  1  0
M  END
>  <group_name>  (1) 
JNS

>  <molecule_index>  (1) 
02536

>  <conformer_index>  (1) 
04

>  <method>  (1) 
b3lyp-d3bj

>  <basis>  (1) 
dzvp

>  <program>  (1) 
psi4

>  <initial_energy>  (1) 
-1106470.0287683518 kilocalorie / mole

>  <final_energy>  (1) 
-1106513.9946569505 kilocalorie / mole

$$$$
