JNS-01242-07
     RDKit          3D

 41 45  0  0  0  0  0  0  0  0999 V2000
   -1.8448    5.2843   -0.4779 F   0  0  0  0  0  0  0  0  0  0  0  0
   -0.8154    4.4567   -0.1655 C   0  0  0  0  0  0  0  0  0  0  0  0
    0.2525    4.8553   -0.8991 F   0  0  0  0  0  0  0  0  0  0  0  0
   -0.5074    4.6742    1.1337 F   0  0  0  0  0  0  0  0  0  0  0  0
   -1.1624    3.0055   -0.4281 C   0  0  0  0  0  0  0  0  0  0  0  0
   -2.4177    2.6426   -0.9431 C   0  0  0  0  0  0  0  0  0  0  0  0
   -2.7044    1.2949   -1.1910 C   0  0  0  0  0  0  0  0  0  0  0  0
   -1.6986    0.3730   -0.9015 C   0  0  0  0  0  0  0  0  0  0  0  0
   -1.6250   -1.0029   -1.0322 N   0  0  0  0  0  0  0  0  0  0  0  0
   -0.4214   -1.3382   -0.6063 C   0  0  0  0  0  0  0  0  0  0  0  0
    0.1069   -2.7379   -0.5693 C   0  0  2  0  0  0  0  0  0  0  0  0
   -0.4698   -3.6214   -1.7072 C   0  0  0  0  0  0  0  0  0  0  0  0
   -1.5152   -4.4744   -0.9843 C   0  0  0  0  0  0  0  0  0  0  0  0
   -0.9410   -4.7201    0.3047 O   0  0  0  0  0  0  0  0  0  0  0  0
   -0.3446   -3.4996    0.7265 C   0  0  0  0  0  0  0  0  0  0  0  0
    0.3260   -0.2409   -0.1777 N   0  0  0  0  0  0  0  0  0  0  0  0
   -0.4797    0.8777   -0.3748 C   0  0  0  0  0  0  0  0  0  0  0  0
   -0.1773    2.1426   -0.1355 N   0  0  0  0  0  0  0  0  0  0  0  0
    1.6482   -0.2261    0.3571 C   0  0  0  0  0  0  0  0  0  0  0  0
    1.9245   -0.9319    1.5410 C   0  0  0  0  0  0  0  0  0  0  0  0
    3.2061   -0.9471    2.0995 C   0  0  0  0  0  0  0  0  0  0  0  0
    4.2014   -0.2126    1.4534 C   0  0  0  0  0  0  0  0  0  0  0  0
    5.5544   -0.0130    1.7625 N   0  0  0  0  0  0  0  0  0  0  0  0
    5.9657    0.7699    0.8225 C   0  0  0  0  0  0  0  0  0  0  0  0
    7.1957    1.2547    0.6674 O   0  0  0  0  0  0  0  0  0  0  0  0
    5.0406    1.1469   -0.1285 O   0  0  0  0  0  0  0  0  0  0  0  0
    3.8817    0.5027    0.2859 C   0  0  0  0  0  0  0  0  0  0  0  0
    2.6327    0.5260   -0.3026 C   0  0  0  0  0  0  0  0  0  0  0  0
   -3.1545    3.4102   -1.1485 H   0  0  0  0  0  0  0  0  0  0  0  0
   -3.6635    0.9814   -1.5926 H   0  0  0  0  0  0  0  0  0  0  0  0
    1.1967   -2.7012   -0.6186 H   0  0  0  0  0  0  0  0  0  0  0  0
   -0.8952   -3.0276   -2.5172 H   0  0  0  0  0  0  0  0  0  0  0  0
    0.3222   -4.2599   -2.1075 H   0  0  0  0  0  0  0  0  0  0  0  0
   -1.7014   -5.4434   -1.4525 H   0  0  0  0  0  0  0  0  0  0  0  0
   -2.4626   -3.9269   -0.8861 H   0  0  0  0  0  0  0  0  0  0  0  0
   -1.0701   -2.8940    1.2881 H   0  0  0  0  0  0  0  0  0  0  0  0
    0.4962   -3.7470    1.3795 H   0  0  0  0  0  0  0  0  0  0  0  0
    1.1150   -1.4573    2.0365 H   0  0  0  0  0  0  0  0  0  0  0  0
    3.4177   -1.4939    3.0127 H   0  0  0  0  0  0  0  0  0  0  0  0
    7.2112    1.8355   -0.1131 H   0  0  0  0  0  0  0  0  0  0  0  0
    2.4105    1.0915   -1.2003 H   0  0  0  0  0  0  0  0  0  0  0  0
  1  2  1  0
  2  3  1  0
  2  4  1  0
  2  5  1  0
  5  6  2  0
  5 18  1  0
  6  7  1  0
  6 29  1  0
  7  8  2  0
  7 30  1  0
  8  9  1  0
  8 17  1  0
  9 10  2  0
 10 11  1  0
 10 16  1  0
 11 12  1  0
 11 15  1  0
 11 31  1  6
 12 13  1  0
 12 32  1  0
 12 33  1  0
 13 14  1  0
 13 34  1  0
 13 35  1  0
 14 15  1  0
 15 36  1  0
 15 37  1  0
 16 17  1  0
 16 19  1  0
 17 18  2  0
 19 20  2  0
 19 28  1  0
 20 21  1  0
 20 38  1  0
 21 22  2  0
 21 39  1  0
 22 23  1  0
 22 27  1  0
 23 24  2  0
 24 25  1  0
 24 26  1  0
 25 40  1  0
 26 27  1  0
 27 28  2  0
 28 41  1  0
M  END
>  <group_name>  (1) 
JNS

>  <molecule_index>  (1) 
01242

>  <conformer_index>  (1) 
07

>  <method>  (1) 
b3lyp-d3bj

>  <basis>  (1) 
dzvp

>  <program>  (1) 
psi4

>  <initial_energy>  (1) 
-902449.8866599646 kilocalorie / mole

>  <final_energy>  (1) 
-902511.1337144033 kilocalorie / mole

$$$$
