JNS-01358-08
     RDKit          3D

 41 45  0  0  0  0  0  0  0  0999 V2000
   -2.4266   -1.0036   -3.1620 F   0  0  0  0  0  0  0  0  0  0  0  0
   -1.9706   -0.5968   -1.9591 C   0  0  0  0  0  0  0  0  0  0  0  0
   -2.8842   -0.3849   -1.0361 N   0  0  0  0  0  0  0  0  0  0  0  0
   -2.4354    0.0157    0.1662 C   0  0  0  0  0  0  0  0  0  0  0  0
   -1.0902    0.2244    0.4587 C   0  0  0  0  0  0  0  0  0  0  0  0
   -0.1401   -0.0006   -0.5546 C   0  0  0  0  0  0  0  0  0  0  0  0
   -0.5949   -0.4366   -1.8044 C   0  0  0  0  0  0  0  0  0  0  0  0
    1.3093    0.1504   -0.3546 C   0  0  0  0  0  0  0  0  0  0  0  0
    2.1990   -0.5808   -1.0071 N   0  0  0  0  0  0  0  0  0  0  0  0
    3.4291   -0.1839   -0.5236 C   0  0  0  0  0  0  0  0  0  0  0  0
    3.2636    0.8330    0.4535 C   0  0  0  0  0  0  0  0  0  0  0  0
    4.2196    1.4555    1.1250 N   0  0  0  0  0  0  0  0  0  0  0  0
    5.4573    1.0414    0.8217 C   0  0  0  0  0  0  0  0  0  0  0  0
    5.7630    0.0414   -0.1194 C   0  0  0  0  0  0  0  0  0  0  0  0
    4.7318   -0.5945   -0.8164 C   0  0  0  0  0  0  0  0  0  0  0  0
    6.5569    1.7551    1.5842 C   0  0  0  0  0  0  0  0  0  0  0  0
    6.3840    1.6536    2.9221 F   0  0  0  0  0  0  0  0  0  0  0  0
    7.7797    1.2434    1.2966 F   0  0  0  0  0  0  0  0  0  0  0  0
    6.5949    3.0745    1.2849 F   0  0  0  0  0  0  0  0  0  0  0  0
    1.8916    1.0403    0.5484 N   0  0  0  0  0  0  0  0  0  0  0  0
    1.2771    2.0936    1.2942 C   0  0  0  0  0  0  0  0  0  0  0  0
    1.4539    2.1392    2.6868 C   0  0  0  0  0  0  0  0  0  0  0  0
    0.8504    3.1633    3.3976 C   0  0  0  0  0  0  0  0  0  0  0  0
    0.0747    4.1275    2.7229 C   0  0  0  0  0  0  0  0  0  0  0  0
   -0.4289    5.0431    3.6533 N   0  0  0  0  0  0  0  0  0  0  0  0
   -0.0286    4.7539    4.9554 C   0  0  0  0  0  0  0  0  0  0  0  0
   -0.3342    5.3911    5.9465 O   0  0  0  0  0  0  0  0  0  0  0  0
    0.8513    3.4965    4.8680 C   0  0  0  0  0  0  0  0  0  0  0  0
   -0.0980    4.0954    1.3415 C   0  0  0  0  0  0  0  0  0  0  0  0
    0.5275    3.0660    0.6282 C   0  0  0  0  0  0  0  0  0  0  0  0
   -3.1947    0.1756    0.9285 H   0  0  0  0  0  0  0  0  0  0  0  0
   -0.7989    0.5402    1.4527 H   0  0  0  0  0  0  0  0  0  0  0  0
    0.0930   -0.6442   -2.6156 H   0  0  0  0  0  0  0  0  0  0  0  0
    6.7974   -0.2287   -0.2954 H   0  0  0  0  0  0  0  0  0  0  0  0
    4.9315   -1.3692   -1.5506 H   0  0  0  0  0  0  0  0  0  0  0  0
    2.0584    1.3851    3.1811 H   0  0  0  0  0  0  0  0  0  0  0  0
   -1.0163    5.8398    3.4393 H   0  0  0  0  0  0  0  0  0  0  0  0
    0.4256    2.7111    5.5001 H   0  0  0  0  0  0  0  0  0  0  0  0
    1.8478    3.7258    5.2586 H   0  0  0  0  0  0  0  0  0  0  0  0
   -0.6877    4.8456    0.8228 H   0  0  0  0  0  0  0  0  0  0  0  0
    0.4240    3.0147   -0.4511 H   0  0  0  0  0  0  0  0  0  0  0  0
  1  2  1  0
  2  3  2  0
  2  7  1  0
  3  4  1  0
  4  5  2  0
  4 31  1  0
  5  6  1  0
  5 32  1  0
  6  7  2  0
  6  8  1  0
  7 33  1  0
  8  9  2  0
  8 20  1  0
  9 10  1  0
 10 11  2  0
 10 15  1  0
 11 12  1  0
 11 20  1  0
 12 13  2  0
 13 14  1  0
 13 16  1  0
 14 15  2  0
 14 34  1  0
 15 35  1  0
 16 17  1  0
 16 18  1  0
 16 19  1  0
 20 21  1  0
 21 22  2  0
 21 30  1  0
 22 23  1  0
 22 36  1  0
 23 24  2  0
 23 28  1  0
 24 25  1  0
 24 29  1  0
 25 26  1  0
 25 37  1  0
 26 27  2  0
 26 28  1  0
 28 38  1  0
 28 39  1  0
 29 30  2  0
 29 40  1  0
 30 41  1  0
M  END
>  <group_name>  (1) 
JNS

>  <molecule_index>  (1) 
01358

>  <conformer_index>  (1) 
08

>  <method>  (1) 
b3lyp-d3bj

>  <basis>  (1) 
dzvp

>  <program>  (1) 
psi4

>  <initial_energy>  (1) 
-952174.7930367662 kilocalorie / mole

>  <final_energy>  (1) 
-952214.6809218619 kilocalorie / mole

$$$$
