JNS-01589-04
     RDKit          3D

 43 47  0  0  0  0  0  0  0  0999 V2000
   -2.4317    0.4652   -2.5153 C   0  0  0  0  0  0  0  0  0  0  0  0
   -1.7162    0.1447   -1.2313 C   0  0  0  0  0  0  0  0  0  0  0  0
   -2.4537   -0.1209   -0.0391 C   0  0  0  0  0  0  0  0  0  0  0  0
   -3.7978   -0.1406    0.1043 N   0  0  0  0  0  0  0  0  0  0  0  0
   -3.9677   -0.4092    1.4173 N   0  0  0  0  0  0  0  0  0  0  0  0
   -2.8229   -0.5631    2.1279 C   0  0  0  0  0  0  0  0  0  0  0  0
   -1.7839   -0.3816    1.2057 C   0  0  0  0  0  0  0  0  0  0  0  0
   -0.3688   -0.4102    1.2734 C   0  0  0  0  0  0  0  0  0  0  0  0
    0.3418   -0.1883    0.1089 C   0  0  0  0  0  0  0  0  0  0  0  0
   -0.3439    0.1105   -1.1194 C   0  0  0  0  0  0  0  0  0  0  0  0
    1.8119   -0.1777    0.1757 C   0  0  0  0  0  0  0  0  0  0  0  0
    2.6189    0.6158    1.0191 C   0  0  0  0  0  0  0  0  0  0  0  0
    2.2632    1.5357    1.9472 N   0  0  0  0  0  0  0  0  0  0  0  0
    3.2686    2.1075    2.5777 C   0  0  0  0  0  0  0  0  0  0  0  0
    4.6539    1.8344    2.3442 C   0  0  0  0  0  0  0  0  0  0  0  0
    5.0215    0.9025    1.3974 C   0  0  0  0  0  0  0  0  0  0  0  0
    3.9691    0.2585    0.7018 C   0  0  0  0  0  0  0  0  0  0  0  0
    4.0083   -0.6927   -0.2467 N   0  0  0  0  0  0  0  0  0  0  0  0
    2.6972   -0.9346   -0.5405 N   0  0  0  0  0  0  0  0  0  0  0  0
    2.4714   -1.9975   -1.5193 C   0  0  0  0  0  0  0  0  0  0  0  0
    2.1360   -1.6608   -2.9958 C   0  0  0  0  0  0  0  0  0  0  0  0
    1.2246   -2.9231   -3.0109 C   0  0  0  0  0  0  0  0  0  0  0  0
    1.2310   -2.9223   -1.4530 C   0  0  0  0  0  0  0  0  0  0  0  0
    2.9060    3.1718    3.5965 C   0  0  0  0  0  0  0  0  0  0  0  0
    3.0561    4.4217    3.0757 F   0  0  0  0  0  0  0  0  0  0  0  0
    3.7261    3.1103    4.6828 F   0  0  0  0  0  0  0  0  0  0  0  0
    1.6426    3.0687    4.0376 F   0  0  0  0  0  0  0  0  0  0  0  0
   -3.1015   -0.3528   -2.8019 H   0  0  0  0  0  0  0  0  0  0  0  0
   -3.0571    1.3568   -2.3987 H   0  0  0  0  0  0  0  0  0  0  0  0
   -1.7241    0.6400   -3.3301 H   0  0  0  0  0  0  0  0  0  0  0  0
   -4.9130   -0.4717    1.7745 H   0  0  0  0  0  0  0  0  0  0  0  0
   -2.8284   -0.7745    3.1882 H   0  0  0  0  0  0  0  0  0  0  0  0
    0.1493   -0.6023    2.2074 H   0  0  0  0  0  0  0  0  0  0  0  0
    0.2542    0.3503   -1.9923 H   0  0  0  0  0  0  0  0  0  0  0  0
    5.4028    2.3636    2.9241 H   0  0  0  0  0  0  0  0  0  0  0  0
    6.0627    0.6675    1.1959 H   0  0  0  0  0  0  0  0  0  0  0  0
    3.3862   -2.5883   -1.4806 H   0  0  0  0  0  0  0  0  0  0  0  0
    2.9830   -1.6257   -3.6852 H   0  0  0  0  0  0  0  0  0  0  0  0
    1.5619   -0.7393   -3.0936 H   0  0  0  0  0  0  0  0  0  0  0  0
    1.7331   -3.7952   -3.4307 H   0  0  0  0  0  0  0  0  0  0  0  0
    0.2498   -2.8171   -3.4917 H   0  0  0  0  0  0  0  0  0  0  0  0
    0.3483   -2.4299   -1.0496 H   0  0  0  0  0  0  0  0  0  0  0  0
    1.3755   -3.8758   -0.9386 H   0  0  0  0  0  0  0  0  0  0  0  0
  1  2  1  0
  1 28  1  0
  1 29  1  0
  1 30  1  0
  2  3  1  0
  2 10  2  0
  3  4  2  0
  3  7  1  0
  4  5  1  0
  5  6  1  0
  5 31  1  0
  6  7  2  0
  6 32  1  0
  7  8  1  0
  8  9  2  0
  8 33  1  0
  9 10  1  0
  9 11  1  0
 10 34  1  0
 11 12  2  0
 11 19  1  0
 12 13  1  0
 12 17  1  0
 13 14  2  0
 14 15  1  0
 14 24  1  0
 15 16  2  0
 15 35  1  0
 16 17  1  0
 16 36  1  0
 17 18  2  0
 18 19  1  0
 19 20  1  0
 20 21  1  0
 20 23  1  0
 20 37  1  0
 21 22  1  0
 21 38  1  0
 21 39  1  0
 22 23  1  0
 22 40  1  0
 22 41  1  0
 23 42  1  0
 23 43  1  0
 24 25  1  0
 24 26  1  0
 24 27  1  0
M  END
>  <group_name>  (1) 
JNS

>  <molecule_index>  (1) 
01589

>  <conformer_index>  (1) 
04

>  <method>  (1) 
b3lyp-d3bj

>  <basis>  (1) 
dzvp

>  <program>  (1) 
psi4

>  <initial_energy>  (1) 
-820189.0951985861 kilocalorie / mole

>  <final_energy>  (1) 
-820248.6353824545 kilocalorie / mole

$$$$
