JNS-02239-01
     RDKit          3D

 53 57  0  0  0  0  0  0  0  0999 V2000
   -3.6426   -0.6965   -0.1664 C   0  0  0  0  0  0  0  0  0  0  0  0
   -2.3650   -0.0129   -0.2722 N   0  0  0  0  0  0  0  0  0  0  0  0
   -1.1509   -0.4438    0.1326 C   0  0  0  0  0  0  0  0  0  0  0  0
   -0.2323    0.5681   -0.1602 C   0  0  0  0  0  0  0  0  0  0  0  0
   -1.0348    1.5824   -0.7622 C   0  0  0  0  0  0  0  0  0  0  0  0
   -2.3173    1.2260   -0.8283 N   0  0  0  0  0  0  0  0  0  0  0  0
    1.2052    0.4565    0.0977 C   0  0  0  0  0  0  0  0  0  0  0  0
    2.1165    1.5329    0.0247 C   0  0  0  0  0  0  0  0  0  0  0  0
    1.7129    2.9666   -0.2486 C   0  0  0  0  0  0  0  0  0  0  0  0
    2.8349    3.9379    0.1375 C   0  0  1  0  0  0  0  0  0  0  0  0
    3.0334    4.0367    1.6761 C   0  0  0  0  0  0  0  0  0  0  0  0
    4.5181    3.9578    2.0481 C   0  0  0  0  0  0  0  0  0  0  0  0
    5.1342    2.6331    1.5661 C   0  0  0  0  0  0  0  0  0  0  0  0
    4.5697    2.2395    0.1676 C   0  0  2  0  0  0  0  0  0  0  0  0
    4.0632    3.4369   -0.4960 N   0  0  0  0  0  0  0  0  0  0  0  0
    4.6057    4.0753   -1.5616 C   0  0  0  0  0  0  0  0  0  0  0  0
    4.2004    5.1538   -2.0018 O   0  0  0  0  0  0  0  0  0  0  0  0
    5.7808    3.4132   -2.2441 C   0  0  0  0  0  0  0  0  0  0  0  0
    7.0070    4.0761   -2.3459 C   0  0  0  0  0  0  0  0  0  0  0  0
    8.0488    3.4781   -3.0566 C   0  0  0  0  0  0  0  0  0  0  0  0
    7.9331    2.2946   -3.6721 N   0  0  0  0  0  0  0  0  0  0  0  0
    6.7628    1.6630   -3.6009 C   0  0  0  0  0  0  0  0  0  0  0  0
    5.6744    2.1909   -2.9013 C   0  0  0  0  0  0  0  0  0  0  0  0
    4.5104    1.5113   -2.8568 F   0  0  0  0  0  0  0  0  0  0  0  0
    6.6348    0.3216   -4.3098 C   0  0  0  0  0  0  0  0  0  0  0  0
    7.7693   -0.0319   -4.9268 F   0  0  0  0  0  0  0  0  0  0  0  0
    6.3177   -0.6612   -3.4285 F   0  0  0  0  0  0  0  0  0  0  0  0
    5.6488    0.3564   -5.2404 F   0  0  0  0  0  0  0  0  0  0  0  0
    3.4592    1.2050    0.2561 C   0  0  0  0  0  0  0  0  0  0  0  0
    3.8710   -0.0253    0.5813 N   0  0  0  0  0  0  0  0  0  0  0  0
    2.9247   -0.9735    0.6692 C   0  0  0  0  0  0  0  0  0  0  0  0
    3.3793   -2.3629    1.0286 C   0  0  0  0  0  0  0  0  0  0  0  0
    1.6242   -0.7857    0.4318 N   0  0  0  0  0  0  0  0  0  0  0  0
   -4.3128   -0.1379    0.4920 H   0  0  0  0  0  0  0  0  0  0  0  0
   -4.0980   -0.7784   -1.1560 H   0  0  0  0  0  0  0  0  0  0  0  0
   -3.4774   -1.6942    0.2428 H   0  0  0  0  0  0  0  0  0  0  0  0
   -0.9917   -1.4111    0.5860 H   0  0  0  0  0  0  0  0  0  0  0  0
   -0.7441    2.5372   -1.1749 H   0  0  0  0  0  0  0  0  0  0  0  0
    1.4784    3.0995   -1.3113 H   0  0  0  0  0  0  0  0  0  0  0  0
    0.8095    3.2172    0.3175 H   0  0  0  0  0  0  0  0  0  0  0  0
    2.6426    4.9220   -0.2874 H   0  0  0  0  0  0  0  0  0  0  0  0
    2.5938    4.9716    2.0354 H   0  0  0  0  0  0  0  0  0  0  0  0
    2.4938    3.2227    2.1736 H   0  0  0  0  0  0  0  0  0  0  0  0
    5.0460    4.8007    1.5879 H   0  0  0  0  0  0  0  0  0  0  0  0
    4.6461    4.0588    3.1304 H   0  0  0  0  0  0  0  0  0  0  0  0
    6.2227    2.7268    1.5027 H   0  0  0  0  0  0  0  0  0  0  0  0
    4.9243    1.8210    2.2674 H   0  0  0  0  0  0  0  0  0  0  0  0
    5.3649    1.7879   -0.4211 H   0  0  0  0  0  0  0  0  0  0  0  0
    7.1344    5.0499   -1.8829 H   0  0  0  0  0  0  0  0  0  0  0  0
    9.0154    3.9691   -3.1409 H   0  0  0  0  0  0  0  0  0  0  0  0
    2.5344   -2.9704    1.3566 H   0  0  0  0  0  0  0  0  0  0  0  0
    3.8314   -2.8413    0.1522 H   0  0  0  0  0  0  0  0  0  0  0  0
    4.1434   -2.3248    1.8090 H   0  0  0  0  0  0  0  0  0  0  0  0
  1  2  1  0
  1 34  1  0
  1 35  1  0
  1 36  1  0
  2  3  1  0
  2  6  1  0
  3  4  2  0
  3 37  1  0
  4  5  1  0
  4  7  1  0
  5  6  2  0
  5 38  1  0
  7  8  1  0
  7 33  2  0
  8  9  1  0
  8 29  2  0
  9 10  1  0
  9 39  1  0
  9 40  1  0
 10 11  1  0
 10 15  1  0
 10 41  1  6
 11 12  1  0
 11 42  1  0
 11 43  1  0
 12 13  1  0
 12 44  1  0
 12 45  1  0
 13 14  1  0
 13 46  1  0
 13 47  1  0
 14 15  1  0
 14 29  1  0
 14 48  1  6
 15 16  1  0
 16 17  2  0
 16 18  1  0
 18 19  2  0
 18 23  1  0
 19 20  1  0
 19 49  1  0
 20 21  2  0
 20 50  1  0
 21 22  1  0
 22 23  2  0
 22 25  1  0
 23 24  1  0
 25 26  1  0
 25 27  1  0
 25 28  1  0
 29 30  1  0
 30 31  2  0
 31 32  1  0
 31 33  1  0
 32 51  1  0
 32 52  1  0
 32 53  1  0
M  END
>  <group_name>  (1) 
JNS

>  <molecule_index>  (1) 
02239

>  <conformer_index>  (1) 
01

>  <method>  (1) 
b3lyp-d3bj

>  <basis>  (1) 
dzvp

>  <program>  (1) 
psi4

>  <initial_energy>  (1) 
-1037738.9950787001 kilocalorie / mole

>  <final_energy>  (1) 
-1037798.5341585837 kilocalorie / mole

$$$$
