JNS-02002-01
     RDKit          3D

 38 40  0  0  0  0  0  0  0  0999 V2000
   -0.0514   -0.4352    0.8967 C   0  0  0  0  0  0  0  0  0  0  0  0
    1.3669   -0.1197    0.4910 C   0  0  0  0  0  0  0  0  0  0  0  0
    2.1256   -1.1726    0.1373 N   0  0  0  0  0  0  0  0  0  0  0  0
    3.3853   -0.9073   -0.2227 C   0  0  0  0  0  0  0  0  0  0  0  0
    3.9696    0.3500   -0.2636 C   0  0  0  0  0  0  0  0  0  0  0  0
    3.1759    1.4654    0.1022 C   0  0  0  0  0  0  0  0  0  0  0  0
    1.8428    1.1927    0.4882 C   0  0  0  0  0  0  0  0  0  0  0  0
    3.6752    2.7330    0.0817 N   0  0  0  0  0  0  0  0  0  0  0  0
    2.9356    3.9019    0.5633 C   0  0  0  0  0  0  0  0  0  0  0  0
    3.9931    5.0140    0.5658 C   0  0  0  0  0  0  0  0  0  0  0  0
    4.9648    4.6063   -0.5519 C   0  0  2  0  0  0  0  0  0  0  0  0
    6.3600    5.2857   -0.5280 C   0  0  0  0  0  0  0  0  0  0  0  0
    6.6288    5.7248   -1.9865 C   0  0  0  0  0  0  0  0  0  0  0  0
    5.6708    4.9217   -2.7629 N   0  0  0  0  0  0  0  0  0  0  0  0
    4.4419    4.9421   -1.9670 C   0  0  0  0  0  0  0  0  0  0  0  0
    5.0220    3.0783   -0.3746 C   0  0  0  0  0  0  0  0  0  0  0  0
    4.1918   -2.1351   -0.6089 C   0  0  0  0  0  0  0  0  0  0  0  0
    3.6592   -2.7663   -1.6813 F   0  0  0  0  0  0  0  0  0  0  0  0
    4.2502   -3.0355    0.3987 F   0  0  0  0  0  0  0  0  0  0  0  0
    5.4753   -1.8201   -0.9330 F   0  0  0  0  0  0  0  0  0  0  0  0
   -0.6109    0.4653    1.1632 H   0  0  0  0  0  0  0  0  0  0  0  0
   -0.0519   -1.1175    1.7526 H   0  0  0  0  0  0  0  0  0  0  0  0
   -0.5700   -0.9448    0.0786 H   0  0  0  0  0  0  0  0  0  0  0  0
    5.0046    0.4621   -0.5573 H   0  0  0  0  0  0  0  0  0  0  0  0
    1.1759    1.9979    0.7750 H   0  0  0  0  0  0  0  0  0  0  0  0
    2.0985    4.1387   -0.1090 H   0  0  0  0  0  0  0  0  0  0  0  0
    2.5197    3.7224    1.5615 H   0  0  0  0  0  0  0  0  0  0  0  0
    3.5591    6.0061    0.4127 H   0  0  0  0  0  0  0  0  0  0  0  0
    4.5202    5.0210    1.5262 H   0  0  0  0  0  0  0  0  0  0  0  0
    6.3699    6.1443    0.1494 H   0  0  0  0  0  0  0  0  0  0  0  0
    7.1237    4.5866   -0.1760 H   0  0  0  0  0  0  0  0  0  0  0  0
    7.6539    5.5226   -2.3107 H   0  0  0  0  0  0  0  0  0  0  0  0
    6.4483    6.8086   -2.0875 H   0  0  0  0  0  0  0  0  0  0  0  0
    5.5293    5.2938   -3.6991 H   0  0  0  0  0  0  0  0  0  0  0  0
    3.7194    4.2087   -2.3393 H   0  0  0  0  0  0  0  0  0  0  0  0
    3.9514    5.9333   -1.9522 H   0  0  0  0  0  0  0  0  0  0  0  0
    5.2693    2.5818   -1.3176 H   0  0  0  0  0  0  0  0  0  0  0  0
    5.7769    2.7913    0.3725 H   0  0  0  0  0  0  0  0  0  0  0  0
  1  2  1  0
  1 21  1  0
  1 22  1  0
  1 23  1  0
  2  3  2  0
  2  7  1  0
  3  4  1  0
  4  5  2  0
  4 17  1  0
  5  6  1  0
  5 24  1  0
  6  7  2  0
  6  8  1  0
  7 25  1  0
  8  9  1  0
  8 16  1  0
  9 10  1  0
  9 26  1  0
  9 27  1  0
 11 10  1  1
 10 28  1  0
 10 29  1  0
 11 12  1  0
 11 15  1  0
 11 16  1  0
 12 13  1  0
 12 30  1  0
 12 31  1  0
 13 14  1  0
 13 32  1  0
 13 33  1  0
 14 15  1  0
 14 34  1  0
 15 35  1  0
 15 36  1  0
 16 37  1  0
 16 38  1  0
 17 18  1  0
 17 19  1  0
 17 20  1  0
M  END
>  <group_name>  (1) 
JNS

>  <molecule_index>  (1) 
02002

>  <conformer_index>  (1) 
01

>  <method>  (1) 
b3lyp-d3bj

>  <basis>  (1) 
dzvp

>  <program>  (1) 
psi4

>  <initial_energy>  (1) 
-632686.7323777805 kilocalorie / mole

>  <final_energy>  (1) 
-632738.5000053702 kilocalorie / mole

$$$$
