JNS-01554-06
     RDKit          3D

 35 38  0  0  0  0  0  0  0  0999 V2000
   -0.5665    0.7724    0.7313 F   0  0  0  0  0  0  0  0  0  0  0  0
   -0.0516   -0.3666    0.1910 C   0  0  0  0  0  0  0  0  0  0  0  0
   -0.2934   -1.3891    1.0257 F   0  0  0  0  0  0  0  0  0  0  0  0
    1.3885   -0.1998    0.0260 N   0  0  0  0  0  0  0  0  0  0  0  0
    2.2013   -1.1797    0.5162 N   0  0  0  0  0  0  0  0  0  0  0  0
    3.4355   -0.7134    0.2767 C   0  0  0  0  0  0  0  0  0  0  0  0
    4.6954   -1.2985    0.5688 C   0  0  0  0  0  0  0  0  0  0  0  0
    5.8058   -0.5716    0.2086 C   0  0  0  0  0  0  0  0  0  0  0  0
    5.6525    0.7037   -0.4293 C   0  0  0  0  0  0  0  0  0  0  0  0
    4.5052    1.2739   -0.7230 N   0  0  0  0  0  0  0  0  0  0  0  0
    3.4039    0.5666   -0.3659 C   0  0  0  0  0  0  0  0  0  0  0  0
    2.0390    0.8765   -0.5340 C   0  0  0  0  0  0  0  0  0  0  0  0
    1.4421    2.0507   -1.1723 C   0  0  0  0  0  0  0  0  0  0  0  0
    2.0941    3.2872   -1.0126 C   0  0  0  0  0  0  0  0  0  0  0  0
    1.5976    4.4376   -1.6249 C   0  0  0  0  0  0  0  0  0  0  0  0
    2.4009    5.9816   -1.4238 Cl  0  0  0  0  0  0  0  0  0  0  0  0
    0.4486    4.3531   -2.4047 C   0  0  0  0  0  0  0  0  0  0  0  0
   -0.2208    5.3515   -3.1073 N   0  0  0  0  0  0  0  0  0  0  0  0
   -1.3308    4.8578   -3.7910 C   0  0  0  0  0  0  0  0  0  0  0  0
   -2.0853    5.5147   -4.4827 O   0  0  0  0  0  0  0  0  0  0  0  0
   -1.3899    3.3503   -3.4894 C   0  0  0  0  0  0  0  0  0  0  0  0
   -0.2034    3.1185   -2.5859 C   0  0  0  0  0  0  0  0  0  0  0  0
    0.2862    1.9753   -1.9820 C   0  0  0  0  0  0  0  0  0  0  0  0
    6.9085    1.4525   -0.8430 C   0  0  0  0  0  0  0  0  0  0  0  0
    7.4572    0.8946   -1.9561 F   0  0  0  0  0  0  0  0  0  0  0  0
    6.6829    2.7472   -1.1046 F   0  0  0  0  0  0  0  0  0  0  0  0
    7.8559    1.3839    0.1309 F   0  0  0  0  0  0  0  0  0  0  0  0
   -0.5558   -0.5590   -0.7578 H   0  0  0  0  0  0  0  0  0  0  0  0
    4.7703   -2.2659    1.0563 H   0  0  0  0  0  0  0  0  0  0  0  0
    6.8047   -0.9461    0.4057 H   0  0  0  0  0  0  0  0  0  0  0  0
    2.9962    3.3501   -0.4160 H   0  0  0  0  0  0  0  0  0  0  0  0
    0.0574    6.3254   -3.1410 H   0  0  0  0  0  0  0  0  0  0  0  0
   -1.3395    2.7934   -4.4302 H   0  0  0  0  0  0  0  0  0  0  0  0
   -2.3496    3.1153   -3.0188 H   0  0  0  0  0  0  0  0  0  0  0  0
   -0.2046    1.0248   -2.1660 H   0  0  0  0  0  0  0  0  0  0  0  0
  1  2  1  0
  2  3  1  0
  2  4  1  0
  2 28  1  0
  4  5  1  0
  4 12  1  0
  5  6  2  0
  6  7  1  0
  6 11  1  0
  7  8  2  0
  7 29  1  0
  8  9  1  0
  8 30  1  0
  9 10  2  0
  9 24  1  0
 10 11  1  0
 11 12  2  0
 12 13  1  0
 13 14  2  0
 13 23  1  0
 14 15  1  0
 14 31  1  0
 15 16  1  0
 15 17  2  0
 17 18  1  0
 17 22  1  0
 18 19  1  0
 18 32  1  0
 19 20  2  0
 19 21  1  0
 21 22  1  0
 21 33  1  0
 21 34  1  0
 22 23  2  0
 23 35  1  0
 24 25  1  0
 24 26  1  0
 24 27  1  0
M  END
>  <group_name>  (1) 
JNS

>  <molecule_index>  (1) 
01554

>  <conformer_index>  (1) 
06

>  <method>  (1) 
b3lyp-d3bj

>  <basis>  (1) 
dzvp

>  <program>  (1) 
psi4

>  <initial_energy>  (1) 
-1172407.817469638 kilocalorie / mole

>  <final_energy>  (1) 
-1172451.252477817 kilocalorie / mole

$$$$
