JNS-01554-07
     RDKit          3D

 35 38  0  0  0  0  0  0  0  0999 V2000
   -0.8069    0.0285    0.4770 F   0  0  0  0  0  0  0  0  0  0  0  0
    0.0286   -0.7369   -0.2920 C   0  0  0  0  0  0  0  0  0  0  0  0
   -0.3976   -0.6333   -1.5766 F   0  0  0  0  0  0  0  0  0  0  0  0
    1.3936   -0.3001   -0.1691 N   0  0  0  0  0  0  0  0  0  0  0  0
    2.1817   -1.1471    0.5680 N   0  0  0  0  0  0  0  0  0  0  0  0
    3.3991   -0.5950    0.4884 C   0  0  0  0  0  0  0  0  0  0  0  0
    4.6286   -1.0259    1.0549 C   0  0  0  0  0  0  0  0  0  0  0  0
    5.7310   -0.2517    0.7841 C   0  0  0  0  0  0  0  0  0  0  0  0
    5.6008    0.9229   -0.0295 C   0  0  0  0  0  0  0  0  0  0  0  0
    4.4821    1.3560   -0.5640 N   0  0  0  0  0  0  0  0  0  0  0  0
    3.3869    0.5968   -0.3077 C   0  0  0  0  0  0  0  0  0  0  0  0
    2.0495    0.7763   -0.7229 C   0  0  0  0  0  0  0  0  0  0  0  0
    1.4854    1.8478   -1.5434 C   0  0  0  0  0  0  0  0  0  0  0  0
    2.3122    2.4124   -2.5347 C   0  0  0  0  0  0  0  0  0  0  0  0
    1.8502    3.4543   -3.3369 C   0  0  0  0  0  0  0  0  0  0  0  0
    2.8707    4.1549   -4.5784 Cl  0  0  0  0  0  0  0  0  0  0  0  0
    0.5609    3.9413   -3.1455 C   0  0  0  0  0  0  0  0  0  0  0  0
   -0.1080    4.9636   -3.8117 N   0  0  0  0  0  0  0  0  0  0  0  0
   -1.3939    5.1637   -3.3090 C   0  0  0  0  0  0  0  0  0  0  0  0
   -2.1866    5.9945   -3.7100 O   0  0  0  0  0  0  0  0  0  0  0  0
   -1.5800    4.1400   -2.1770 C   0  0  0  0  0  0  0  0  0  0  0  0
   -0.2679    3.3947   -2.1472 C   0  0  0  0  0  0  0  0  0  0  0  0
    0.1824    2.3615   -1.3476 C   0  0  0  0  0  0  0  0  0  0  0  0
    6.8499    1.7495   -0.2829 C   0  0  0  0  0  0  0  0  0  0  0  0
    7.2875    2.3261    0.8692 F   0  0  0  0  0  0  0  0  0  0  0  0
    7.8652    0.9599   -0.7283 F   0  0  0  0  0  0  0  0  0  0  0  0
    6.6619    2.7222   -1.1829 F   0  0  0  0  0  0  0  0  0  0  0  0
   -0.0267   -1.7696    0.0476 H   0  0  0  0  0  0  0  0  0  0  0  0
    4.6868   -1.9221    1.6652 H   0  0  0  0  0  0  0  0  0  0  0  0
    6.7080   -0.5164    1.1753 H   0  0  0  0  0  0  0  0  0  0  0  0
    3.3206    2.0431   -2.6754 H   0  0  0  0  0  0  0  0  0  0  0  0
    0.2791    5.5165   -4.5675 H   0  0  0  0  0  0  0  0  0  0  0  0
   -2.4388    3.5011   -2.4049 H   0  0  0  0  0  0  0  0  0  0  0  0
   -1.8034    4.6692   -1.2454 H   0  0  0  0  0  0  0  0  0  0  0  0
   -0.4547    1.9700   -0.5643 H   0  0  0  0  0  0  0  0  0  0  0  0
  1  2  1  0
  2  3  1  0
  2  4  1  0
  2 28  1  0
  4  5  1  0
  4 12  1  0
  5  6  2  0
  6  7  1  0
  6 11  1  0
  7  8  2  0
  7 29  1  0
  8  9  1  0
  8 30  1  0
  9 10  2  0
  9 24  1  0
 10 11  1  0
 11 12  2  0
 12 13  1  0
 13 14  2  0
 13 23  1  0
 14 15  1  0
 14 31  1  0
 15 16  1  0
 15 17  2  0
 17 18  1  0
 17 22  1  0
 18 19  1  0
 18 32  1  0
 19 20  2  0
 19 21  1  0
 21 22  1  0
 21 33  1  0
 21 34  1  0
 22 23  2  0
 23 35  1  0
 24 25  1  0
 24 26  1  0
 24 27  1  0
M  END
>  <group_name>  (1) 
JNS

>  <molecule_index>  (1) 
01554

>  <conformer_index>  (1) 
07

>  <method>  (1) 
b3lyp-d3bj

>  <basis>  (1) 
dzvp

>  <program>  (1) 
psi4

>  <initial_energy>  (1) 
-1172408.5520975492 kilocalorie / mole

>  <final_energy>  (1) 
-1172456.7714637055 kilocalorie / mole

$$$$
