JNS-01554-03
     RDKit          3D

 35 38  0  0  0  0  0  0  0  0999 V2000
   -0.2850   -0.6142    1.6117 F   0  0  0  0  0  0  0  0  0  0  0  0
   -0.0292   -0.1259    0.3815 C   0  0  0  0  0  0  0  0  0  0  0  0
   -0.6158   -0.9601   -0.5312 F   0  0  0  0  0  0  0  0  0  0  0  0
    1.3928   -0.0616    0.1571 N   0  0  0  0  0  0  0  0  0  0  0  0
    2.1788   -1.0514    0.6673 N   0  0  0  0  0  0  0  0  0  0  0  0
    3.4218   -0.6462    0.3694 C   0  0  0  0  0  0  0  0  0  0  0  0
    4.6686   -1.2654    0.6516 C   0  0  0  0  0  0  0  0  0  0  0  0
    5.7920   -0.6028    0.2181 C   0  0  0  0  0  0  0  0  0  0  0  0
    5.6682    0.6443   -0.4815 C   0  0  0  0  0  0  0  0  0  0  0  0
    4.5365    1.2495   -0.7622 N   0  0  0  0  0  0  0  0  0  0  0  0
    3.4216    0.6048   -0.3336 C   0  0  0  0  0  0  0  0  0  0  0  0
    2.0670    0.9589   -0.4730 C   0  0  0  0  0  0  0  0  0  0  0  0
    1.4626    2.1001   -1.1574 C   0  0  0  0  0  0  0  0  0  0  0  0
    2.0992    3.3510   -1.0560 C   0  0  0  0  0  0  0  0  0  0  0  0
    1.5790    4.4656   -1.7122 C   0  0  0  0  0  0  0  0  0  0  0  0
    2.3581    6.0290   -1.5865 Cl  0  0  0  0  0  0  0  0  0  0  0  0
    0.4230    4.3288   -2.4767 C   0  0  0  0  0  0  0  0  0  0  0  0
   -0.2649    5.2861   -3.2159 N   0  0  0  0  0  0  0  0  0  0  0  0
   -1.3700    4.7461   -3.8746 C   0  0  0  0  0  0  0  0  0  0  0  0
   -2.1379    5.3634   -4.5869 O   0  0  0  0  0  0  0  0  0  0  0  0
   -1.4005    3.2511   -3.5141 C   0  0  0  0  0  0  0  0  0  0  0  0
   -0.2105    3.0777   -2.6021 C   0  0  0  0  0  0  0  0  0  0  0  0
    0.3019    1.9660   -1.9568 C   0  0  0  0  0  0  0  0  0  0  0  0
    6.9475    1.3338   -0.9237 C   0  0  0  0  0  0  0  0  0  0  0  0
    7.6852    1.7127    0.1560 F   0  0  0  0  0  0  0  0  0  0  0  0
    7.7281    0.4836   -1.6440 F   0  0  0  0  0  0  0  0  0  0  0  0
    6.7278    2.4225   -1.6706 F   0  0  0  0  0  0  0  0  0  0  0  0
   -0.4672    0.8673    0.2803 H   0  0  0  0  0  0  0  0  0  0  0  0
    4.7230   -2.2108    1.1829 H   0  0  0  0  0  0  0  0  0  0  0  0
    6.7820   -1.0108    0.3946 H   0  0  0  0  0  0  0  0  0  0  0  0
    3.0049    3.4503   -0.4689 H   0  0  0  0  0  0  0  0  0  0  0  0
   -0.0010    6.2614   -3.2941 H   0  0  0  0  0  0  0  0  0  0  0  0
   -2.3567    3.0128   -3.0384 H   0  0  0  0  0  0  0  0  0  0  0  0
   -1.3348    2.6582   -4.4317 H   0  0  0  0  0  0  0  0  0  0  0  0
   -0.1579    0.9931   -2.1037 H   0  0  0  0  0  0  0  0  0  0  0  0
  1  2  1  0
  2  3  1  0
  2  4  1  0
  2 28  1  0
  4  5  1  0
  4 12  1  0
  5  6  2  0
  6  7  1  0
  6 11  1  0
  7  8  2  0
  7 29  1  0
  8  9  1  0
  8 30  1  0
  9 10  2  0
  9 24  1  0
 10 11  1  0
 11 12  2  0
 12 13  1  0
 13 14  2  0
 13 23  1  0
 14 15  1  0
 14 31  1  0
 15 16  1  0
 15 17  2  0
 17 18  1  0
 17 22  1  0
 18 19  1  0
 18 32  1  0
 19 20  2  0
 19 21  1  0
 21 22  1  0
 21 33  1  0
 21 34  1  0
 22 23  2  0
 23 35  1  0
 24 25  1  0
 24 26  1  0
 24 27  1  0
M  END
>  <group_name>  (1) 
JNS

>  <molecule_index>  (1) 
01554

>  <conformer_index>  (1) 
03

>  <method>  (1) 
b3lyp-d3bj

>  <basis>  (1) 
dzvp

>  <program>  (1) 
psi4

>  <initial_energy>  (1) 
-1172400.1758240154 kilocalorie / mole

>  <final_energy>  (1) 
-1172455.1719854735 kilocalorie / mole

$$$$
