JNS-01595-04
     RDKit          3D

 39 42  0  0  0  0  0  0  0  0999 V2000
   -0.3974   -0.9909    1.5759 C   0  0  0  0  0  0  0  0  0  0  0  0
   -0.0882   -0.3189    0.2237 C   0  0  0  0  0  0  0  0  0  0  0  0
   -0.6497   -1.1424   -0.9485 C   0  0  0  0  0  0  0  0  0  0  0  0
    1.3942   -0.1295    0.0654 C   0  0  0  0  0  0  0  0  0  0  0  0
    2.2512   -1.1096   -0.1495 N   0  0  0  0  0  0  0  0  0  0  0  0
    3.4939   -0.5070   -0.2379 C   0  0  0  0  0  0  0  0  0  0  0  0
    3.3678    0.8983   -0.0681 C   0  0  0  0  0  0  0  0  0  0  0  0
    4.3382    1.7963   -0.0953 N   0  0  0  0  0  0  0  0  0  0  0  0
    5.5572    1.2771   -0.3073 C   0  0  0  0  0  0  0  0  0  0  0  0
    5.8248   -0.0898   -0.4901 C   0  0  0  0  0  0  0  0  0  0  0  0
    4.7746   -1.0148   -0.4569 C   0  0  0  0  0  0  0  0  0  0  0  0
    6.6738    2.3007   -0.3315 C   0  0  0  0  0  0  0  0  0  0  0  0
    7.8767    1.7266   -0.5913 F   0  0  0  0  0  0  0  0  0  0  0  0
    6.4701    3.2453   -1.2787 F   0  0  0  0  0  0  0  0  0  0  0  0
    6.7893    2.9451    0.8546 F   0  0  0  0  0  0  0  0  0  0  0  0
    2.0086    1.1209    0.1316 N   0  0  0  0  0  0  0  0  0  0  0  0
    1.4009    2.3940    0.3528 C   0  0  0  0  0  0  0  0  0  0  0  0
    1.4182    3.3423   -0.6589 C   0  0  0  0  0  0  0  0  0  0  0  0
    0.8276    4.5877   -0.3938 C   0  0  0  0  0  0  0  0  0  0  0  0
    0.2340    4.8488    0.8694 C   0  0  0  0  0  0  0  0  0  0  0  0
   -0.2503    6.1287    0.7975 N   0  0  0  0  0  0  0  0  0  0  0  0
   -0.0099    6.7134   -0.4128 N   0  0  0  0  0  0  0  0  0  0  0  0
    0.6267    5.8036   -1.1222 C   0  0  0  0  0  0  0  0  0  0  0  0
    1.1722    6.1426   -2.8965 Br  0  0  0  0  0  0  0  0  0  0  0  0
    0.2262    3.8874    1.8947 C   0  0  0  0  0  0  0  0  0  0  0  0
    0.8243    2.6674    1.6190 C   0  0  0  0  0  0  0  0  0  0  0  0
   -0.0211   -0.3989    2.4165 H   0  0  0  0  0  0  0  0  0  0  0  0
   -1.4789   -1.1079    1.6998 H   0  0  0  0  0  0  0  0  0  0  0  0
    0.0683   -1.9793    1.6229 H   0  0  0  0  0  0  0  0  0  0  0  0
   -0.5570    0.6701    0.2118 H   0  0  0  0  0  0  0  0  0  0  0  0
   -1.7309   -1.2691   -0.8325 H   0  0  0  0  0  0  0  0  0  0  0  0
   -0.1814   -2.1294   -0.9806 H   0  0  0  0  0  0  0  0  0  0  0  0
   -0.4626   -0.6464   -1.9060 H   0  0  0  0  0  0  0  0  0  0  0  0
    6.8439   -0.4178   -0.6576 H   0  0  0  0  0  0  0  0  0  0  0  0
    4.9475   -2.0779   -0.5961 H   0  0  0  0  0  0  0  0  0  0  0  0
    1.8801    3.1278   -1.6172 H   0  0  0  0  0  0  0  0  0  0  0  0
   -0.7185    6.6707    1.5103 H   0  0  0  0  0  0  0  0  0  0  0  0
   -0.2142    4.0882    2.8669 H   0  0  0  0  0  0  0  0  0  0  0  0
    0.8660    1.8995    2.3852 H   0  0  0  0  0  0  0  0  0  0  0  0
  1  2  1  0
  1 27  1  0
  1 28  1  0
  1 29  1  0
  2  3  1  0
  2  4  1  0
  2 30  1  0
  3 31  1  0
  3 32  1  0
  3 33  1  0
  4  5  2  0
  4 16  1  0
  5  6  1  0
  6  7  2  0
  6 11  1  0
  7  8  1  0
  7 16  1  0
  8  9  2  0
  9 10  1  0
  9 12  1  0
 10 11  2  0
 10 34  1  0
 11 35  1  0
 12 13  1  0
 12 14  1  0
 12 15  1  0
 16 17  1  0
 17 18  2  0
 17 26  1  0
 18 19  1  0
 18 36  1  0
 19 20  2  0
 19 23  1  0
 20 21  1  0
 20 25  1  0
 21 22  1  0
 21 37  1  0
 22 23  2  0
 23 24  1  0
 25 26  2  0
 25 38  1  0
 26 39  1  0
M  END
>  <group_name>  (1) 
JNS

>  <molecule_index>  (1) 
01595

>  <conformer_index>  (1) 
04

>  <method>  (1) 
b3lyp-d3bj

>  <basis>  (1) 
dzvp

>  <program>  (1) 
psi4

>  <initial_energy>  (1) 
-2386304.6388262915 kilocalorie / mole

>  <final_energy>  (1) 
-2386339.7703720755 kilocalorie / mole

$$$$
