JNS-01595-05
     RDKit          3D

 39 42  0  0  0  0  0  0  0  0999 V2000
   -0.3709   -0.1976    1.4808 C   0  0  0  0  0  0  0  0  0  0  0  0
   -0.0322   -0.2581   -0.0246 C   0  0  0  0  0  0  0  0  0  0  0  0
   -0.5216   -1.5657   -0.6592 C   0  0  0  0  0  0  0  0  0  0  0  0
    1.4486   -0.0836   -0.2197 C   0  0  0  0  0  0  0  0  0  0  0  0
    2.2925   -1.0600   -0.4919 N   0  0  0  0  0  0  0  0  0  0  0  0
    3.5513   -0.4820   -0.4880 C   0  0  0  0  0  0  0  0  0  0  0  0
    3.4490    0.9044   -0.1984 C   0  0  0  0  0  0  0  0  0  0  0  0
    4.4400    1.7754   -0.1040 N   0  0  0  0  0  0  0  0  0  0  0  0
    5.6551    1.2451   -0.3130 C   0  0  0  0  0  0  0  0  0  0  0  0
    5.8993   -0.1054   -0.6106 C   0  0  0  0  0  0  0  0  0  0  0  0
    4.8269   -1.0015   -0.7041 C   0  0  0  0  0  0  0  0  0  0  0  0
    6.7928    2.2392   -0.2028 C   0  0  0  0  0  0  0  0  0  0  0  0
    6.8234    2.8330    1.0147 F   0  0  0  0  0  0  0  0  0  0  0  0
    6.6894    3.2267   -1.1230 F   0  0  0  0  0  0  0  0  0  0  0  0
    7.9995    1.6456   -0.3876 F   0  0  0  0  0  0  0  0  0  0  0  0
    2.0892    1.1460   -0.0373 N   0  0  0  0  0  0  0  0  0  0  0  0
    1.5105    2.4145    0.2659 C   0  0  0  0  0  0  0  0  0  0  0  0
    0.6275    3.0061   -0.6239 C   0  0  0  0  0  0  0  0  0  0  0  0
    0.0701    4.2441   -0.2645 C   0  0  0  0  0  0  0  0  0  0  0  0
    0.4360    4.8693    0.9560 C   0  0  0  0  0  0  0  0  0  0  0  0
   -0.2636    6.0472    0.9968 N   0  0  0  0  0  0  0  0  0  0  0  0
   -1.0487    6.2299   -0.1047 N   0  0  0  0  0  0  0  0  0  0  0  0
   -0.8540    5.1634   -0.8541 C   0  0  0  0  0  0  0  0  0  0  0  0
   -1.7386    4.9451   -2.5080 Br  0  0  0  0  0  0  0  0  0  0  0  0
    1.3528    4.2775    1.8428 C   0  0  0  0  0  0  0  0  0  0  0  0
    1.8752    3.0462    1.4831 C   0  0  0  0  0  0  0  0  0  0  0  0
    0.1304   -1.0099    2.0169 H   0  0  0  0  0  0  0  0  0  0  0  0
   -0.0642    0.7527    1.9274 H   0  0  0  0  0  0  0  0  0  0  0  0
   -1.4507   -0.3059    1.6241 H   0  0  0  0  0  0  0  0  0  0  0  0
   -0.5437    0.5788   -0.5114 H   0  0  0  0  0  0  0  0  0  0  0  0
   -0.2942   -1.5984   -1.7282 H   0  0  0  0  0  0  0  0  0  0  0  0
   -0.0414   -2.4289   -0.1918 H   0  0  0  0  0  0  0  0  0  0  0  0
   -1.6049   -1.6539   -0.5301 H   0  0  0  0  0  0  0  0  0  0  0  0
    6.9169   -0.4446   -0.7640 H   0  0  0  0  0  0  0  0  0  0  0  0
    4.9811   -2.0522   -0.9316 H   0  0  0  0  0  0  0  0  0  0  0  0
    0.3853    2.5359   -1.5718 H   0  0  0  0  0  0  0  0  0  0  0  0
   -0.2512    6.7676    1.7054 H   0  0  0  0  0  0  0  0  0  0  0  0
    1.6449    4.7586    2.7716 H   0  0  0  0  0  0  0  0  0  0  0  0
    2.5886    2.5483    2.1314 H   0  0  0  0  0  0  0  0  0  0  0  0
  1  2  1  0
  1 27  1  0
  1 28  1  0
  1 29  1  0
  2  3  1  0
  2  4  1  0
  2 30  1  0
  3 31  1  0
  3 32  1  0
  3 33  1  0
  4  5  2  0
  4 16  1  0
  5  6  1  0
  6  7  2  0
  6 11  1  0
  7  8  1  0
  7 16  1  0
  8  9  2  0
  9 10  1  0
  9 12  1  0
 10 11  2  0
 10 34  1  0
 11 35  1  0
 12 13  1  0
 12 14  1  0
 12 15  1  0
 16 17  1  0
 17 18  2  0
 17 26  1  0
 18 19  1  0
 18 36  1  0
 19 20  2  0
 19 23  1  0
 20 21  1  0
 20 25  1  0
 21 22  1  0
 21 37  1  0
 22 23  2  0
 23 24  1  0
 25 26  2  0
 25 38  1  0
 26 39  1  0
M  END
>  <group_name>  (1) 
JNS

>  <molecule_index>  (1) 
01595

>  <conformer_index>  (1) 
05

>  <method>  (1) 
b3lyp-d3bj

>  <basis>  (1) 
dzvp

>  <program>  (1) 
psi4

>  <initial_energy>  (1) 
-2386263.599882305 kilocalorie / mole

>  <final_energy>  (1) 
-2386340.509156869 kilocalorie / mole

$$$$
