JNS-01494-02
     RDKit          3D

 42 45  0  0  0  0  0  0  0  0999 V2000
   -0.4734   -1.0029   -0.9291 C   0  0  0  0  0  0  0  0  0  0  0  0
   -0.8121   -0.1502    0.2972 C   0  0  0  0  0  0  0  0  0  0  0  0
    0.2048   -0.2848    1.4523 C   0  0  2  0  0  0  0  0  0  0  0  0
   -0.1727    0.6177    2.6422 C   0  0  0  0  0  0  0  0  0  0  0  0
    1.6340   -0.1048    1.0194 C   0  0  0  0  0  0  0  0  0  0  0  0
    2.5277   -1.0754    1.1008 N   0  0  0  0  0  0  0  0  0  0  0  0
    3.7117   -0.5409    0.6222 C   0  0  0  0  0  0  0  0  0  0  0  0
    3.5116    0.8115    0.2379 C   0  0  0  0  0  0  0  0  0  0  0  0
    4.4129    1.6422   -0.2597 N   0  0  0  0  0  0  0  0  0  0  0  0
    5.6335    1.1024   -0.3994 C   0  0  0  0  0  0  0  0  0  0  0  0
    5.9692   -0.2195   -0.0627 C   0  0  0  0  0  0  0  0  0  0  0  0
    4.9911   -1.0727    0.4626 C   0  0  0  0  0  0  0  0  0  0  0  0
    6.6699    2.0492   -0.9690 C   0  0  0  0  0  0  0  0  0  0  0  0
    7.8877    1.4575   -1.0761 F   0  0  0  0  0  0  0  0  0  0  0  0
    6.3291    2.4829   -2.2057 F   0  0  0  0  0  0  0  0  0  0  0  0
    6.8287    3.1477   -0.1930 F   0  0  0  0  0  0  0  0  0  0  0  0
    2.1707    1.0736    0.4968 N   0  0  0  0  0  0  0  0  0  0  0  0
    1.5431    2.3400    0.2636 C   0  0  0  0  0  0  0  0  0  0  0  0
    0.9116    2.5806   -0.9459 C   0  0  0  0  0  0  0  0  0  0  0  0
    0.3202    3.8412   -1.1439 C   0  0  0  0  0  0  0  0  0  0  0  0
    0.4019    4.8249   -0.1217 C   0  0  0  0  0  0  0  0  0  0  0  0
   -0.2568    5.9202   -0.6124 N   0  0  0  0  0  0  0  0  0  0  0  0
   -0.7486    5.7166   -1.8673 N   0  0  0  0  0  0  0  0  0  0  0  0
   -0.4120    4.4791   -2.1966 C   0  0  0  0  0  0  0  0  0  0  0  0
    1.0648    4.5864    1.0951 C   0  0  0  0  0  0  0  0  0  0  0  0
    1.6336    3.3346    1.2681 C   0  0  0  0  0  0  0  0  0  0  0  0
   -0.3808   -2.0612   -0.6628 H   0  0  0  0  0  0  0  0  0  0  0  0
    0.4770   -0.7003   -1.3817 H   0  0  0  0  0  0  0  0  0  0  0  0
   -1.2520   -0.9126   -1.6934 H   0  0  0  0  0  0  0  0  0  0  0  0
   -0.9084    0.9014    0.0103 H   0  0  0  0  0  0  0  0  0  0  0  0
   -1.7905   -0.4489    0.6928 H   0  0  0  0  0  0  0  0  0  0  0  0
    0.1811   -1.3241    1.7952 H   0  0  0  0  0  0  0  0  0  0  0  0
    0.5518    0.5218    3.4569 H   0  0  0  0  0  0  0  0  0  0  0  0
   -0.2280    1.6697    2.3508 H   0  0  0  0  0  0  0  0  0  0  0  0
   -1.1552    0.3251    3.0268 H   0  0  0  0  0  0  0  0  0  0  0  0
    6.9841   -0.5689   -0.2118 H   0  0  0  0  0  0  0  0  0  0  0  0
    5.2172   -2.0998    0.7338 H   0  0  0  0  0  0  0  0  0  0  0  0
    0.8816    1.8106   -1.7107 H   0  0  0  0  0  0  0  0  0  0  0  0
   -0.3925    6.8215   -0.1763 H   0  0  0  0  0  0  0  0  0  0  0  0
   -0.6965    4.0836   -3.1637 H   0  0  0  0  0  0  0  0  0  0  0  0
    1.1384    5.3460    1.8680 H   0  0  0  0  0  0  0  0  0  0  0  0
    2.1645    3.0971    2.1850 H   0  0  0  0  0  0  0  0  0  0  0  0
  1  2  1  0
  1 27  1  0
  1 28  1  0
  1 29  1  0
  2  3  1  0
  2 30  1  0
  2 31  1  0
  3  4  1  0
  3  5  1  0
  3 32  1  1
  4 33  1  0
  4 34  1  0
  4 35  1  0
  5  6  2  0
  5 17  1  0
  6  7  1  0
  7  8  2  0
  7 12  1  0
  8  9  1  0
  8 17  1  0
  9 10  2  0
 10 11  1  0
 10 13  1  0
 11 12  2  0
 11 36  1  0
 12 37  1  0
 13 14  1  0
 13 15  1  0
 13 16  1  0
 17 18  1  0
 18 19  2  0
 18 26  1  0
 19 20  1  0
 19 38  1  0
 20 21  2  0
 20 24  1  0
 21 22  1  0
 21 25  1  0
 22 23  1  0
 22 39  1  0
 23 24  2  0
 24 40  1  0
 25 26  2  0
 25 41  1  0
 26 42  1  0
M  END
>  <group_name>  (1) 
JNS

>  <molecule_index>  (1) 
01494

>  <conformer_index>  (1) 
02

>  <method>  (1) 
b3lyp-d3bj

>  <basis>  (1) 
dzvp

>  <program>  (1) 
psi4

>  <initial_energy>  (1) 
-796321.9884431661 kilocalorie / mole

>  <final_energy>  (1) 
-796376.8097956117 kilocalorie / mole

$$$$
