JNS-01155-01
     RDKit          3D

 46 50  0  0  0  0  0  0  0  0999 V2000
   -0.6759    0.4565    0.0837 F   0  0  0  0  0  0  0  0  0  0  0  0
    0.1086    0.0077   -0.9348 C   0  0  0  0  0  0  0  0  0  0  0  0
   -0.3589   -1.2152   -1.2805 F   0  0  0  0  0  0  0  0  0  0  0  0
   -0.0707    0.8339   -1.9749 F   0  0  0  0  0  0  0  0  0  0  0  0
    1.5596   -0.0486   -0.5352 C   0  0  0  0  0  0  0  0  0  0  0  0
    2.4560    0.7976   -0.9861 N   0  0  0  0  0  0  0  0  0  0  0  0
    3.6513    0.4093   -0.4004 C   0  0  0  0  0  0  0  0  0  0  0  0
    3.4339   -0.7195    0.4230 C   0  0  0  0  0  0  0  0  0  0  0  0
    4.3230   -1.4059    1.1352 N   0  0  0  0  0  0  0  0  0  0  0  0
    5.5589   -0.9072    1.0174 C   0  0  0  0  0  0  0  0  0  0  0  0
    5.9336    0.2001    0.2517 C   0  0  0  0  0  0  0  0  0  0  0  0
    4.9757    0.9240   -0.5094 C   0  0  0  0  0  0  0  0  0  0  0  0
    5.3332    1.9951   -1.2701 N   0  0  0  0  0  0  0  0  0  0  0  0
    6.7421    2.3906   -1.3756 C   0  0  0  0  0  0  0  0  0  0  0  0
    6.9019    3.4633   -2.4479 C   0  0  0  0  0  0  0  0  0  0  0  0
    6.1213    4.6232   -2.1840 O   0  0  0  0  0  0  0  0  0  0  0  0
    4.7888    4.3372   -1.7305 C   0  0  0  0  0  0  0  0  0  0  0  0
    4.3747    2.8847   -1.9388 C   0  0  0  0  0  0  0  0  0  0  0  0
    6.6070   -1.6683    1.8116 C   0  0  0  0  0  0  0  0  0  0  0  0
    7.8406   -1.1104    1.6938 F   0  0  0  0  0  0  0  0  0  0  0  0
    6.3100   -1.7010    3.1292 F   0  0  0  0  0  0  0  0  0  0  0  0
    6.7113   -2.9506    1.3901 F   0  0  0  0  0  0  0  0  0  0  0  0
    2.0727   -0.9973    0.3301 N   0  0  0  0  0  0  0  0  0  0  0  0
    1.4006   -2.0596    1.0211 C   0  0  0  0  0  0  0  0  0  0  0  0
    1.7383   -3.3709    0.7254 C   0  0  0  0  0  0  0  0  0  0  0  0
    1.0869   -4.3915    1.4385 C   0  0  0  0  0  0  0  0  0  0  0  0
    0.1153   -4.0574    2.4204 C   0  0  0  0  0  0  0  0  0  0  0  0
   -0.3296   -5.2523    2.9186 N   0  0  0  0  0  0  0  0  0  0  0  0
    0.2818   -6.3226    2.3357 N   0  0  0  0  0  0  0  0  0  0  0  0
    1.1297   -5.8233    1.4503 C   0  0  0  0  0  0  0  0  0  0  0  0
   -0.2149   -2.7254    2.7223 C   0  0  0  0  0  0  0  0  0  0  0  0
    0.4476   -1.7335    2.0161 C   0  0  0  0  0  0  0  0  0  0  0  0
    6.9705    0.5018    0.2610 H   0  0  0  0  0  0  0  0  0  0  0  0
    7.3570    1.5252   -1.6515 H   0  0  0  0  0  0  0  0  0  0  0  0
    7.1079    2.7726   -0.4124 H   0  0  0  0  0  0  0  0  0  0  0  0
    6.6551    3.0443   -3.4340 H   0  0  0  0  0  0  0  0  0  0  0  0
    7.9436    3.7919   -2.4770 H   0  0  0  0  0  0  0  0  0  0  0  0
    4.7234    4.5845   -0.6626 H   0  0  0  0  0  0  0  0  0  0  0  0
    4.1043    4.9933   -2.2784 H   0  0  0  0  0  0  0  0  0  0  0  0
    3.3803    2.7301   -1.5277 H   0  0  0  0  0  0  0  0  0  0  0  0
    4.3164    2.6464   -3.0083 H   0  0  0  0  0  0  0  0  0  0  0  0
    2.4887   -3.5894   -0.0275 H   0  0  0  0  0  0  0  0  0  0  0  0
   -1.0180   -5.4175    3.6395 H   0  0  0  0  0  0  0  0  0  0  0  0
    1.7405   -6.4898    0.8543 H   0  0  0  0  0  0  0  0  0  0  0  0
   -0.9488   -2.4728    3.4821 H   0  0  0  0  0  0  0  0  0  0  0  0
    0.2402   -0.6890    2.2232 H   0  0  0  0  0  0  0  0  0  0  0  0
  1  2  1  0
  2  3  1  0
  2  4  1  0
  2  5  1  0
  5  6  2  0
  5 23  1  0
  6  7  1  0
  7  8  2  0
  7 12  1  0
  8  9  1  0
  8 23  1  0
  9 10  2  0
 10 11  1  0
 10 19  1  0
 11 12  2  0
 11 33  1  0
 12 13  1  0
 13 14  1  0
 13 18  1  0
 14 15  1  0
 14 34  1  0
 14 35  1  0
 15 16  1  0
 15 36  1  0
 15 37  1  0
 16 17  1  0
 17 18  1  0
 17 38  1  0
 17 39  1  0
 18 40  1  0
 18 41  1  0
 19 20  1  0
 19 21  1  0
 19 22  1  0
 23 24  1  0
 24 25  2  0
 24 32  1  0
 25 26  1  0
 25 42  1  0
 26 27  2  0
 26 30  1  0
 27 28  1  0
 27 31  1  0
 28 29  1  0
 28 43  1  0
 29 30  2  0
 30 44  1  0
 31 32  2  0
 31 45  1  0
 32 46  1  0
M  END
>  <group_name>  (1) 
JNS

>  <molecule_index>  (1) 
01155

>  <conformer_index>  (1) 
01

>  <method>  (1) 
b3lyp-d3bj

>  <basis>  (1) 
dzvp

>  <program>  (1) 
psi4

>  <initial_energy>  (1) 
-1088998.3356345536 kilocalorie / mole

>  <final_energy>  (1) 
-1089098.5865140923 kilocalorie / mole

$$$$
