JNS-01558-00
     RDKit          3D

 42 46  0  0  0  0  0  0  0  0999 V2000
   -0.4631    1.0369   -0.1507 F   0  0  0  0  0  0  0  0  0  0  0  0
    0.1215   -0.1417    0.1953 C   0  0  0  0  0  0  0  0  0  0  0  0
   -0.4263   -0.5443    1.3520 F   0  0  0  0  0  0  0  0  0  0  0  0
   -0.2371   -1.0436   -0.7615 F   0  0  0  0  0  0  0  0  0  0  0  0
    1.6309   -0.0031    0.2705 C   0  0  0  0  0  0  0  0  0  0  0  0
    2.2324   -0.6805    1.2268 N   0  0  0  0  0  0  0  0  0  0  0  0
    3.5833   -0.5818    1.2402 C   0  0  0  0  0  0  0  0  0  0  0  0
    4.5274   -1.1529    2.1224 C   0  0  0  0  0  0  0  0  0  0  0  0
    5.7379   -0.7163    1.6509 N   0  0  0  0  0  0  0  0  0  0  0  0
    5.6660    0.1117    0.5652 N   0  0  0  0  0  0  0  0  0  0  0  0
    4.3493    0.1962    0.3112 C   0  0  0  0  0  0  0  0  0  0  0  0
    3.6637    0.9098   -0.7029 C   0  0  0  0  0  0  0  0  0  0  0  0
    2.2905    0.7991   -0.7136 C   0  0  0  0  0  0  0  0  0  0  0  0
    7.0411   -1.0882    2.1049 C   0  0  0  0  0  0  0  0  0  0  0  0
    7.3464   -2.4344    2.3253 C   0  0  0  0  0  0  0  0  0  0  0  0
    8.6247   -2.7798    2.7667 C   0  0  0  0  0  0  0  0  0  0  0  0
    9.5918   -1.7896    2.9734 C   0  0  0  0  0  0  0  0  0  0  0  0
    9.2785   -0.4478    2.7304 C   0  0  0  0  0  0  0  0  0  0  0  0
    8.0005   -0.0908    2.2943 C   0  0  0  0  0  0  0  0  0  0  0  0
    4.2940   -1.9517    3.3260 C   0  0  0  0  0  0  0  0  0  0  0  0
    5.0760   -1.7999    4.4858 C   0  0  0  0  0  0  0  0  0  0  0  0
    4.8213   -2.5429    5.6425 C   0  0  0  0  0  0  0  0  0  0  0  0
    3.7559   -3.4396    5.6201 C   0  0  0  0  0  0  0  0  0  0  0  0
    3.2932   -4.2898    6.6312 N   0  0  0  0  0  0  0  0  0  0  0  0
    2.1835   -5.0315    6.2358 C   0  0  0  0  0  0  0  0  0  0  0  0
    1.5938   -5.8426    6.9280 O   0  0  0  0  0  0  0  0  0  0  0  0
    1.8804   -4.6171    4.7875 C   0  0  0  0  0  0  0  0  0  0  0  0
    2.9466   -3.5955    4.4783 C   0  0  0  0  0  0  0  0  0  0  0  0
    3.2060   -2.8561    3.3384 C   0  0  0  0  0  0  0  0  0  0  0  0
    4.1985    1.5113   -1.4321 H   0  0  0  0  0  0  0  0  0  0  0  0
    1.6961    1.3183   -1.4579 H   0  0  0  0  0  0  0  0  0  0  0  0
    6.5939   -3.1967    2.1545 H   0  0  0  0  0  0  0  0  0  0  0  0
    8.8669   -3.8247    2.9394 H   0  0  0  0  0  0  0  0  0  0  0  0
   10.5864   -2.0633    3.3146 H   0  0  0  0  0  0  0  0  0  0  0  0
   10.0287    0.3235    2.8810 H   0  0  0  0  0  0  0  0  0  0  0  0
    7.7399    0.9429    2.0933 H   0  0  0  0  0  0  0  0  0  0  0  0
    5.8892   -1.0823    4.4973 H   0  0  0  0  0  0  0  0  0  0  0  0
    5.4342   -2.4087    6.5294 H   0  0  0  0  0  0  0  0  0  0  0  0
    3.6889   -4.3746    7.5594 H   0  0  0  0  0  0  0  0  0  0  0  0
    0.8640   -4.2147    4.7318 H   0  0  0  0  0  0  0  0  0  0  0  0
    1.9160   -5.5012    4.1434 H   0  0  0  0  0  0  0  0  0  0  0  0
    2.5797   -2.9537    2.4578 H   0  0  0  0  0  0  0  0  0  0  0  0
  1  2  1  0
  2  3  1  0
  2  4  1  0
  2  5  1  0
  5  6  2  0
  5 13  1  0
  6  7  1  0
  7  8  2  0
  7 11  1  0
  8  9  1  0
  8 20  1  0
  9 10  1  0
  9 14  1  0
 10 11  2  0
 11 12  1  0
 12 13  2  0
 12 30  1  0
 13 31  1  0
 14 15  2  0
 14 19  1  0
 15 16  1  0
 15 32  1  0
 16 17  2  0
 16 33  1  0
 17 18  1  0
 17 34  1  0
 18 19  2  0
 18 35  1  0
 19 36  1  0
 20 21  2  0
 20 29  1  0
 21 22  1  0
 21 37  1  0
 22 23  2  0
 22 38  1  0
 23 24  1  0
 23 28  1  0
 24 25  1  0
 24 39  1  0
 25 26  2  0
 25 27  1  0
 27 28  1  0
 27 40  1  0
 27 41  1  0
 28 29  2  0
 29 42  1  0
M  END
>  <group_name>  (1) 
JNS

>  <molecule_index>  (1) 
01558

>  <conformer_index>  (1) 
00

>  <method>  (1) 
b3lyp-d3bj

>  <basis>  (1) 
dzvp

>  <program>  (1) 
psi4

>  <initial_energy>  (1) 
-879753.527889901 kilocalorie / mole

>  <final_energy>  (1) 
-879837.4747234447 kilocalorie / mole

$$$$
