JNS-02002-06
     RDKit          3D

 38 40  0  0  0  0  0  0  0  0999 V2000
    0.2243   -0.1018   -1.5993 C   0  0  0  0  0  0  0  0  0  0  0  0
    1.4898    0.0476   -0.7923 C   0  0  0  0  0  0  0  0  0  0  0  0
    1.7231   -0.9127    0.1206 N   0  0  0  0  0  0  0  0  0  0  0  0
    2.8455   -0.7974    0.8365 C   0  0  0  0  0  0  0  0  0  0  0  0
    3.7800    0.2211    0.7203 C   0  0  0  0  0  0  0  0  0  0  0  0
    3.5390    1.2404   -0.2334 C   0  0  0  0  0  0  0  0  0  0  0  0
    2.3565    1.1224   -0.9997 C   0  0  0  0  0  0  0  0  0  0  0  0
    4.4074    2.2789   -0.3948 N   0  0  0  0  0  0  0  0  0  0  0  0
    5.6987    2.3727    0.2937 C   0  0  0  0  0  0  0  0  0  0  0  0
    6.3751    3.5695   -0.3873 C   0  0  0  0  0  0  0  0  0  0  0  0
    5.2017    4.4615   -0.8222 C   0  0  2  0  0  0  0  0  0  0  0  0
    5.5183    5.5371   -1.8873 C   0  0  0  0  0  0  0  0  0  0  0  0
    4.7535    6.8138   -1.4232 C   0  0  0  0  0  0  0  0  0  0  0  0
    3.9069    6.4352   -0.2741 N   0  0  0  0  0  0  0  0  0  0  0  0
    4.6091    5.3048    0.3412 C   0  0  0  0  0  0  0  0  0  0  0  0
    4.1719    3.4125   -1.2842 C   0  0  0  0  0  0  0  0  0  0  0  0
    3.0517   -1.9069    1.8536 C   0  0  0  0  0  0  0  0  0  0  0  0
    4.2149   -1.7537    2.5434 F   0  0  0  0  0  0  0  0  0  0  0  0
    2.0542   -1.9399    2.7671 F   0  0  0  0  0  0  0  0  0  0  0  0
    3.0998   -3.1239    1.2661 F   0  0  0  0  0  0  0  0  0  0  0  0
   -0.6426   -0.1333   -0.9321 H   0  0  0  0  0  0  0  0  0  0  0  0
    0.0932    0.7177   -2.3107 H   0  0  0  0  0  0  0  0  0  0  0  0
    0.2413   -1.0478   -2.1497 H   0  0  0  0  0  0  0  0  0  0  0  0
    4.6563    0.2323    1.3544 H   0  0  0  0  0  0  0  0  0  0  0  0
    2.1183    1.8543   -1.7632 H   0  0  0  0  0  0  0  0  0  0  0  0
    6.2741    1.4474    0.1779 H   0  0  0  0  0  0  0  0  0  0  0  0
    5.5556    2.5453    1.3696 H   0  0  0  0  0  0  0  0  0  0  0  0
    6.9336    3.2301   -1.2666 H   0  0  0  0  0  0  0  0  0  0  0  0
    7.0738    4.0880    0.2754 H   0  0  0  0  0  0  0  0  0  0  0  0
    5.2063    5.2108   -2.8844 H   0  0  0  0  0  0  0  0  0  0  0  0
    6.5956    5.7245   -1.9362 H   0  0  0  0  0  0  0  0  0  0  0  0
    5.4652    7.5781   -1.0919 H   0  0  0  0  0  0  0  0  0  0  0  0
    4.1423    7.2600   -2.2120 H   0  0  0  0  0  0  0  0  0  0  0  0
    3.0034    6.1135   -0.6171 H   0  0  0  0  0  0  0  0  0  0  0  0
    3.9387    4.7357    0.9919 H   0  0  0  0  0  0  0  0  0  0  0  0
    5.4252    5.6964    0.9626 H   0  0  0  0  0  0  0  0  0  0  0  0
    4.3273    3.1327   -2.3369 H   0  0  0  0  0  0  0  0  0  0  0  0
    3.1424    3.7794   -1.1878 H   0  0  0  0  0  0  0  0  0  0  0  0
  1  2  1  0
  1 21  1  0
  1 22  1  0
  1 23  1  0
  2  3  2  0
  2  7  1  0
  3  4  1  0
  4  5  2  0
  4 17  1  0
  5  6  1  0
  5 24  1  0
  6  7  2  0
  6  8  1  0
  7 25  1  0
  8  9  1  0
  8 16  1  0
  9 10  1  0
  9 26  1  0
  9 27  1  0
 11 10  1  1
 10 28  1  0
 10 29  1  0
 11 12  1  0
 11 15  1  0
 11 16  1  0
 12 13  1  0
 12 30  1  0
 12 31  1  0
 13 14  1  0
 13 32  1  0
 13 33  1  0
 14 15  1  0
 14 34  1  0
 15 35  1  0
 15 36  1  0
 16 37  1  0
 16 38  1  0
 17 18  1  0
 17 19  1  0
 17 20  1  0
M  END
>  <group_name>  (1) 
JNS

>  <molecule_index>  (1) 
02002

>  <conformer_index>  (1) 
06

>  <method>  (1) 
b3lyp-d3bj

>  <basis>  (1) 
dzvp

>  <program>  (1) 
psi4

>  <initial_energy>  (1) 
-632668.8195053311 kilocalorie / mole

>  <final_energy>  (1) 
-632737.8967116 kilocalorie / mole

$$$$
