JNS-01374-00
     RDKit          3D

 32 35  0  0  0  0  0  0  0  0999 V2000
   -0.6958    0.0443   -0.9123 F   0  0  0  0  0  0  0  0  0  0  0  0
   -0.0639    0.3301    0.2530 C   0  0  0  0  0  0  0  0  0  0  0  0
   -0.3908    1.5734    0.6147 F   0  0  0  0  0  0  0  0  0  0  0  0
   -0.5509   -0.5243    1.1889 F   0  0  0  0  0  0  0  0  0  0  0  0
    1.4313    0.1782    0.1056 C   0  0  0  0  0  0  0  0  0  0  0  0
    2.2887    1.1218    0.4133 N   0  0  0  0  0  0  0  0  0  0  0  0
    3.5280    0.5761    0.1189 C   0  0  0  0  0  0  0  0  0  0  0  0
    3.3743   -0.7426   -0.3816 C   0  0  0  0  0  0  0  0  0  0  0  0
    4.3356   -1.5641   -0.7741 N   0  0  0  0  0  0  0  0  0  0  0  0
    5.5662   -1.0497   -0.6639 C   0  0  0  0  0  0  0  0  0  0  0  0
    5.8615    0.2396   -0.1810 C   0  0  0  0  0  0  0  0  0  0  0  0
    4.8248    1.0840    0.2235 C   0  0  0  0  0  0  0  0  0  0  0  0
    6.6746   -1.9875   -1.1092 C   0  0  0  0  0  0  0  0  0  0  0  0
    6.5089   -2.3764   -2.3932 F   0  0  0  0  0  0  0  0  0  0  0  0
    6.7119   -3.1053   -0.3499 F   0  0  0  0  0  0  0  0  0  0  0  0
    7.8929   -1.3985   -1.0199 F   0  0  0  0  0  0  0  0  0  0  0  0
    2.0049   -0.9869   -0.3809 N   0  0  0  0  0  0  0  0  0  0  0  0
    1.3789   -2.2055   -0.7966 C   0  0  0  0  0  0  0  0  0  0  0  0
    1.2949   -2.5147   -2.1483 C   0  0  0  0  0  0  0  0  0  0  0  0
    0.7010   -3.7412   -2.4709 C   0  0  0  0  0  0  0  0  0  0  0  0
    0.2445   -4.5490   -1.3912 C   0  0  0  0  0  0  0  0  0  0  0  0
   -0.2867   -5.6680   -1.9626 N   0  0  0  0  0  0  0  0  0  0  0  0
   -0.2055   -5.6419   -3.3228 N   0  0  0  0  0  0  0  0  0  0  0  0
    0.3816   -4.4985   -3.6427 C   0  0  0  0  0  0  0  0  0  0  0  0
    0.3272   -4.2691   -0.0842 N   0  0  0  0  0  0  0  0  0  0  0  0
    0.9008   -3.1012    0.1906 C   0  0  0  0  0  0  0  0  0  0  0  0
    6.8930    0.5672   -0.1292 H   0  0  0  0  0  0  0  0  0  0  0  0
    5.0146    2.0851    0.5988 H   0  0  0  0  0  0  0  0  0  0  0  0
    1.6763   -1.8306   -2.9008 H   0  0  0  0  0  0  0  0  0  0  0  0
   -0.7020   -6.4639   -1.4960 H   0  0  0  0  0  0  0  0  0  0  0  0
    0.5558   -4.2557   -4.6836 H   0  0  0  0  0  0  0  0  0  0  0  0
    0.9977   -2.8337    1.2406 H   0  0  0  0  0  0  0  0  0  0  0  0
  1  2  1  0
  2  3  1  0
  2  4  1  0
  2  5  1  0
  5  6  2  0
  5 17  1  0
  6  7  1  0
  7  8  2  0
  7 12  1  0
  8  9  1  0
  8 17  1  0
  9 10  2  0
 10 11  1  0
 10 13  1  0
 11 12  2  0
 11 27  1  0
 12 28  1  0
 13 14  1  0
 13 15  1  0
 13 16  1  0
 17 18  1  0
 18 19  2  0
 18 26  1  0
 19 20  1  0
 19 29  1  0
 20 21  2  0
 20 24  1  0
 21 22  1  0
 21 25  1  0
 22 23  1  0
 22 30  1  0
 23 24  2  0
 24 31  1  0
 25 26  2  0
 26 32  1  0
M  END
>  <group_name>  (1) 
JNS

>  <molecule_index>  (1) 
01374

>  <conformer_index>  (1) 
00

>  <method>  (1) 
b3lyp-d3bj

>  <basis>  (1) 
dzvp

>  <program>  (1) 
psi4

>  <initial_energy>  (1) 
-919227.6323026619 kilocalorie / mole

>  <final_energy>  (1) 
-919279.820751847 kilocalorie / mole

$$$$
