JNS-02240-09
     RDKit          3D

 51 55  0  0  0  0  0  0  0  0999 V2000
   -0.4558    7.4361    3.3528 C   0  0  0  0  0  0  0  0  0  0  0  0
   -0.6184    5.9992    2.9380 C   0  0  0  0  0  0  0  0  0  0  0  0
   -1.4304    5.2235    3.6623 N   0  0  0  0  0  0  0  0  0  0  0  0
   -1.5638    3.9309    3.3057 C   0  0  0  0  0  0  0  0  0  0  0  0
   -2.4834    3.1492    4.1794 C   0  0  0  0  0  0  0  0  0  0  0  0
   -2.3567    1.8137    4.2370 N   0  0  0  0  0  0  0  0  0  0  0  0
   -3.1832    1.1609    5.0600 C   0  0  0  0  0  0  0  0  0  0  0  0
   -4.1488    1.8274    5.8188 C   0  0  0  0  0  0  0  0  0  0  0  0
   -4.2944    3.1587    5.7615 N   0  0  0  0  0  0  0  0  0  0  0  0
   -3.4595    3.8133    4.9505 C   0  0  0  0  0  0  0  0  0  0  0  0
   -0.8897    3.3971    2.1889 C   0  0  0  0  0  0  0  0  0  0  0  0
   -1.0317    1.9697    1.7032 C   0  0  0  0  0  0  0  0  0  0  0  0
   -0.3704    1.6990    0.3385 C   0  0  1  0  0  0  0  0  0  0  0  0
   -1.2299    2.0588   -0.8900 C   0  0  0  0  0  0  0  0  0  0  0  0
   -1.4190    3.5728   -1.0723 C   0  0  0  0  0  0  0  0  0  0  0  0
   -0.0759    4.3128   -0.9959 C   0  0  0  0  0  0  0  0  0  0  0  0
    0.7049    3.8948    0.2682 C   0  0  2  0  0  0  0  0  0  0  0  0
    0.8924    2.4428    0.2616 N   0  0  0  0  0  0  0  0  0  0  0  0
    2.1320    1.9166    0.0898 C   0  0  0  0  0  0  0  0  0  0  0  0
    3.1534    2.5806   -0.0861 O   0  0  0  0  0  0  0  0  0  0  0  0
    2.2365    0.4071    0.0996 C   0  0  0  0  0  0  0  0  0  0  0  0
    2.3617   -0.2807   -1.1091 C   0  0  0  0  0  0  0  0  0  0  0  0
    2.5258   -1.6648   -1.0864 C   0  0  0  0  0  0  0  0  0  0  0  0
    2.5714   -2.3722    0.0473 N   0  0  0  0  0  0  0  0  0  0  0  0
    2.4678   -1.7249    1.2071 C   0  0  0  0  0  0  0  0  0  0  0  0
    2.3037   -0.3314    1.2864 C   0  0  0  0  0  0  0  0  0  0  0  0
    2.1863    0.5014    2.8168 Cl  0  0  0  0  0  0  0  0  0  0  0  0
    2.5243   -2.6011    2.4581 C   0  0  0  0  0  0  0  0  0  0  0  0
    2.6722   -3.8968    2.1544 F   0  0  0  0  0  0  0  0  0  0  0  0
    3.5555   -2.2480    3.2625 F   0  0  0  0  0  0  0  0  0  0  0  0
    1.3832   -2.4813    3.1864 F   0  0  0  0  0  0  0  0  0  0  0  0
   -0.0521    4.3030    1.5147 C   0  0  0  0  0  0  0  0  0  0  0  0
    0.0832    5.5834    1.8717 N   0  0  0  0  0  0  0  0  0  0  0  0
   -0.5147    8.0926    2.4805 H   0  0  0  0  0  0  0  0  0  0  0  0
   -1.2171    7.7128    4.0833 H   0  0  0  0  0  0  0  0  0  0  0  0
    0.5328    7.5829    3.8018 H   0  0  0  0  0  0  0  0  0  0  0  0
   -3.0726    0.0796    5.1166 H   0  0  0  0  0  0  0  0  0  0  0  0
   -4.8171    1.2815    6.4819 H   0  0  0  0  0  0  0  0  0  0  0  0
   -3.5508    4.8933    4.8985 H   0  0  0  0  0  0  0  0  0  0  0  0
   -0.5905    1.3057    2.4479 H   0  0  0  0  0  0  0  0  0  0  0  0
   -2.0888    1.6922    1.6578 H   0  0  0  0  0  0  0  0  0  0  0  0
   -0.1474    0.6330    0.2887 H   0  0  0  0  0  0  0  0  0  0  0  0
   -0.7275    1.6483   -1.7752 H   0  0  0  0  0  0  0  0  0  0  0  0
   -2.1994    1.5553   -0.8095 H   0  0  0  0  0  0  0  0  0  0  0  0
   -2.0960    3.9579   -0.3012 H   0  0  0  0  0  0  0  0  0  0  0  0
   -1.9028    3.7711   -2.0344 H   0  0  0  0  0  0  0  0  0  0  0  0
   -0.2235    5.3964   -0.9807 H   0  0  0  0  0  0  0  0  0  0  0  0
    0.5448    4.0721   -1.8666 H   0  0  0  0  0  0  0  0  0  0  0  0
    1.6871    4.3651    0.2811 H   0  0  0  0  0  0  0  0  0  0  0  0
    2.3378    0.2612   -2.0501 H   0  0  0  0  0  0  0  0  0  0  0  0
    2.6240   -2.2305   -2.0103 H   0  0  0  0  0  0  0  0  0  0  0  0
  1  2  1  0
  1 34  1  0
  1 35  1  0
  1 36  1  0
  2  3  2  0
  2 33  1  0
  3  4  1  0
  4  5  1  0
  4 11  2  0
  5  6  2  0
  5 10  1  0
  6  7  1  0
  7  8  2  0
  7 37  1  0
  8  9  1  0
  8 38  1  0
  9 10  2  0
 10 39  1  0
 11 12  1  0
 11 32  1  0
 12 13  1  0
 12 40  1  0
 12 41  1  0
 13 14  1  0
 13 18  1  0
 13 42  1  6
 14 15  1  0
 14 43  1  0
 14 44  1  0
 15 16  1  0
 15 45  1  0
 15 46  1  0
 16 17  1  0
 16 47  1  0
 16 48  1  0
 17 18  1  0
 17 32  1  0
 17 49  1  6
 18 19  1  0
 19 20  2  0
 19 21  1  0
 21 22  2  0
 21 26  1  0
 22 23  1  0
 22 50  1  0
 23 24  2  0
 23 51  1  0
 24 25  1  0
 25 26  2  0
 25 28  1  0
 26 27  1  0
 28 29  1  0
 28 30  1  0
 28 31  1  0
 32 33  2  0
M  END
>  <group_name>  (1) 
JNS

>  <molecule_index>  (1) 
02240

>  <conformer_index>  (1) 
09

>  <method>  (1) 
b3lyp-d3bj

>  <basis>  (1) 
dzvp

>  <program>  (1) 
psi4

>  <initial_energy>  (1) 
-1263090.6850455601 kilocalorie / mole

>  <final_energy>  (1) 
-1263143.3108747131 kilocalorie / mole

$$$$
