JNS-01596-00
     RDKit          3D

 37 41  0  0  0  0  0  0  0  0999 V2000
   -3.2005   -1.3814    2.9592 F   0  0  0  0  0  0  0  0  0  0  0  0
   -3.2366   -0.8436    1.7403 C   0  0  0  0  0  0  0  0  0  0  0  0
   -4.4115   -0.5494    1.1468 N   0  0  0  0  0  0  0  0  0  0  0  0
   -4.2767   -0.0093   -0.0945 N   0  0  0  0  0  0  0  0  0  0  0  0
   -2.9385    0.0284   -0.2723 C   0  0  0  0  0  0  0  0  0  0  0  0
   -2.2163   -0.4910    0.8617 C   0  0  0  0  0  0  0  0  0  0  0  0
   -0.7999   -0.5483    0.8775 C   0  0  0  0  0  0  0  0  0  0  0  0
   -0.1417   -0.0739   -0.2336 C   0  0  0  0  0  0  0  0  0  0  0  0
   -0.8470    0.4714   -1.3588 C   0  0  0  0  0  0  0  0  0  0  0  0
   -2.2195    0.5177   -1.3974 C   0  0  0  0  0  0  0  0  0  0  0  0
    1.2846   -0.0610   -0.2566 N   0  0  0  0  0  0  0  0  0  0  0  0
    2.1332   -0.5368   -1.2558 C   0  0  0  0  0  0  0  0  0  0  0  0
    3.4096   -0.2979   -1.0066 N   0  0  0  0  0  0  0  0  0  0  0  0
    3.4327    0.3588    0.2099 C   0  0  0  0  0  0  0  0  0  0  0  0
    2.1105    0.5117    0.7095 C   0  0  0  0  0  0  0  0  0  0  0  0
    1.7513    1.0727    1.8508 N   0  0  0  0  0  0  0  0  0  0  0  0
    2.7768    1.5403    2.5804 C   0  0  0  0  0  0  0  0  0  0  0  0
    4.1269    1.4608    2.2045 C   0  0  0  0  0  0  0  0  0  0  0  0
    4.4758    0.8565    0.9904 C   0  0  0  0  0  0  0  0  0  0  0  0
    2.3661    2.1778    3.8910 C   0  0  0  0  0  0  0  0  0  0  0  0
    1.6955    1.3071    4.6842 F   0  0  0  0  0  0  0  0  0  0  0  0
    3.4405    2.6139    4.5974 F   0  0  0  0  0  0  0  0  0  0  0  0
    1.5547    3.2447    3.7009 F   0  0  0  0  0  0  0  0  0  0  0  0
    1.6292   -1.2325   -2.4499 C   0  0  0  0  0  0  0  0  0  0  0  0
    2.6074   -2.0352   -3.2879 C   0  0  0  0  0  0  0  0  0  0  0  0
    2.0790   -0.7378   -3.8269 C   0  0  0  0  0  0  0  0  0  0  0  0
   -5.3366   -0.6870    1.5369 H   0  0  0  0  0  0  0  0  0  0  0  0
   -0.2533   -0.9299    1.7324 H   0  0  0  0  0  0  0  0  0  0  0  0
   -0.2660    0.8628   -2.1882 H   0  0  0  0  0  0  0  0  0  0  0  0
   -2.7508    0.9325   -2.2485 H   0  0  0  0  0  0  0  0  0  0  0  0
    4.8901    1.8643    2.8595 H   0  0  0  0  0  0  0  0  0  0  0  0
    5.5108    0.7756    0.6716 H   0  0  0  0  0  0  0  0  0  0  0  0
    0.6134   -1.6040   -2.3769 H   0  0  0  0  0  0  0  0  0  0  0  0
    2.2366   -2.9626   -3.7131 H   0  0  0  0  0  0  0  0  0  0  0  0
    3.6326   -2.0519   -2.9349 H   0  0  0  0  0  0  0  0  0  0  0  0
    1.3399   -0.7599   -4.6223 H   0  0  0  0  0  0  0  0  0  0  0  0
    2.7516    0.1139   -3.8337 H   0  0  0  0  0  0  0  0  0  0  0  0
  1  2  1  0
  2  3  1  0
  2  6  2  0
  3  4  1  0
  3 27  1  0
  4  5  2  0
  5  6  1  0
  5 10  1  0
  6  7  1  0
  7  8  2  0
  7 28  1  0
  8  9  1  0
  8 11  1  0
  9 10  2  0
  9 29  1  0
 10 30  1  0
 11 12  1  0
 11 15  1  0
 12 13  2  0
 12 24  1  0
 13 14  1  0
 14 15  2  0
 14 19  1  0
 15 16  1  0
 16 17  2  0
 17 18  1  0
 17 20  1  0
 18 19  2  0
 18 31  1  0
 19 32  1  0
 20 21  1  0
 20 22  1  0
 20 23  1  0
 24 25  1  0
 24 26  1  0
 24 33  1  0
 25 26  1  0
 25 34  1  0
 25 35  1  0
 26 36  1  0
 26 37  1  0
M  END
>  <group_name>  (1) 
JNS

>  <molecule_index>  (1) 
01596

>  <conformer_index>  (1) 
00

>  <method>  (1) 
b3lyp-d3bj

>  <basis>  (1) 
dzvp

>  <program>  (1) 
psi4

>  <initial_energy>  (1) 
-833147.730832464 kilocalorie / mole

>  <final_energy>  (1) 
-833195.8237391413 kilocalorie / mole

$$$$
