JNS-01082-09
     RDKit          3D

 43 46  0  0  0  0  0  0  0  0999 V2000
   -0.4181    3.8264    1.0178 C   0  0  0  0  0  0  0  0  0  0  0  0
    0.1918    2.7619    0.0938 C   0  0  2  0  0  0  0  0  0  0  0  0
    0.3313    3.2557   -1.3639 C   0  0  0  0  0  0  0  0  0  0  0  0
   -1.0123    3.1752   -2.0082 C   0  0  0  0  0  0  0  0  0  0  0  0
   -2.0596    2.4304   -1.5290 C   0  0  0  0  0  0  0  0  0  0  0  0
   -1.9916    1.5602   -0.3157 C   0  0  0  0  0  0  0  0  0  0  0  0
   -0.5923    1.5097    0.1451 N   0  0  0  0  0  0  0  0  0  0  0  0
   -0.2062    0.3869    0.8141 C   0  0  0  0  0  0  0  0  0  0  0  0
   -0.9659   -0.5469    1.0742 O   0  0  0  0  0  0  0  0  0  0  0  0
    1.2356    0.2734    1.2582 C   0  0  0  0  0  0  0  0  0  0  0  0
    2.3156    0.2903    0.3803 C   0  0  0  0  0  0  0  0  0  0  0  0
    2.1062    0.5139   -0.9341 F   0  0  0  0  0  0  0  0  0  0  0  0
    3.6169    0.0880    0.8474 C   0  0  0  0  0  0  0  0  0  0  0  0
    3.8831   -0.1353    2.1328 N   0  0  0  0  0  0  0  0  0  0  0  0
    2.8546   -0.1759    2.9895 C   0  0  0  0  0  0  0  0  0  0  0  0
    1.5274    0.0114    2.6006 C   0  0  0  0  0  0  0  0  0  0  0  0
    4.7881    0.1342   -0.1241 C   0  0  0  0  0  0  0  0  0  0  0  0
    5.9600   -0.0714    0.4880 F   0  0  0  0  0  0  0  0  0  0  0  0
    4.6544   -0.8005   -1.0958 F   0  0  0  0  0  0  0  0  0  0  0  0
    4.8498    1.3449   -0.7415 F   0  0  0  0  0  0  0  0  0  0  0  0
   -3.1541    2.6121   -2.3326 N   0  0  0  0  0  0  0  0  0  0  0  0
   -2.8479    3.4329   -3.2932 N   0  0  0  0  0  0  0  0  0  0  0  0
   -1.5319    3.7971   -3.1152 N   0  0  0  0  0  0  0  0  0  0  0  0
   -0.8842    4.6543   -4.0358 C   0  0  0  0  0  0  0  0  0  0  0  0
    0.4522    4.6325   -4.0067 N   0  0  0  0  0  0  0  0  0  0  0  0
    1.0805    5.4277   -4.8745 C   0  0  0  0  0  0  0  0  0  0  0  0
    0.3756    6.2302   -5.7797 C   0  0  0  0  0  0  0  0  0  0  0  0
    1.0767    7.0121   -6.6513 O   0  0  0  0  0  0  0  0  0  0  0  0
   -1.0213    6.1693   -5.7094 C   0  0  0  0  0  0  0  0  0  0  0  0
   -1.6559    5.3897   -4.8321 N   0  0  0  0  0  0  0  0  0  0  0  0
   -0.5260    3.4347    2.0339 H   0  0  0  0  0  0  0  0  0  0  0  0
   -1.4011    4.1546    0.6686 H   0  0  0  0  0  0  0  0  0  0  0  0
    0.2352    4.7035    1.0564 H   0  0  0  0  0  0  0  0  0  0  0  0
    1.1899    2.5358    0.4650 H   0  0  0  0  0  0  0  0  0  0  0  0
    1.0503    2.6370   -1.9072 H   0  0  0  0  0  0  0  0  0  0  0  0
    0.7221    4.2759   -1.3745 H   0  0  0  0  0  0  0  0  0  0  0  0
   -2.3089    0.5409   -0.5386 H   0  0  0  0  0  0  0  0  0  0  0  0
   -2.6486    1.9309    0.4820 H   0  0  0  0  0  0  0  0  0  0  0  0
    3.1051   -0.3701    4.0297 H   0  0  0  0  0  0  0  0  0  0  0  0
    0.7195   -0.0545    3.3228 H   0  0  0  0  0  0  0  0  0  0  0  0
    2.1687    5.4301   -4.8656 H   0  0  0  0  0  0  0  0  0  0  0  0
    0.4632    7.4978   -7.2267 H   0  0  0  0  0  0  0  0  0  0  0  0
   -1.6468    6.7710   -6.3715 H   0  0  0  0  0  0  0  0  0  0  0  0
  1  2  1  0
  1 31  1  0
  1 32  1  0
  1 33  1  0
  2  3  1  0
  2  7  1  0
  2 34  1  1
  3  4  1  0
  3 35  1  0
  3 36  1  0
  4  5  2  0
  4 23  1  0
  5  6  1  0
  5 21  1  0
  6  7  1  0
  6 37  1  0
  6 38  1  0
  7  8  1  0
  8  9  2  0
  8 10  1  0
 10 11  2  0
 10 16  1  0
 11 12  1  0
 11 13  1  0
 13 14  2  0
 13 17  1  0
 14 15  1  0
 15 16  2  0
 15 39  1  0
 16 40  1  0
 17 18  1  0
 17 19  1  0
 17 20  1  0
 21 22  2  0
 22 23  1  0
 23 24  1  0
 24 25  2  0
 24 30  1  0
 25 26  1  0
 26 27  2  0
 26 41  1  0
 27 28  1  0
 27 29  1  0
 28 42  1  0
 29 30  2  0
 29 43  1  0
M  END
>  <group_name>  (1) 
JNS

>  <molecule_index>  (1) 
01082

>  <conformer_index>  (1) 
09

>  <method>  (1) 
b3lyp-d3bj

>  <basis>  (1) 
dzvp

>  <program>  (1) 
psi4

>  <initial_energy>  (1) 
-997065.3242926156 kilocalorie / mole

>  <final_energy>  (1) 
-997108.0709399414 kilocalorie / mole

$$$$
