JNS-01554-04
     RDKit          3D

 35 38  0  0  0  0  0  0  0  0999 V2000
   -0.4713    1.0424    1.5158 F   0  0  0  0  0  0  0  0  0  0  0  0
    0.0817   -0.1736    1.2768 C   0  0  0  0  0  0  0  0  0  0  0  0
   -0.7706   -0.8557    0.4521 F   0  0  0  0  0  0  0  0  0  0  0  0
    1.3826   -0.0340    0.6764 N   0  0  0  0  0  0  0  0  0  0  0  0
    2.3462   -0.8240    1.2487 N   0  0  0  0  0  0  0  0  0  0  0  0
    3.4632   -0.4857    0.5918 C   0  0  0  0  0  0  0  0  0  0  0  0
    4.7882   -0.9726    0.7466 C   0  0  0  0  0  0  0  0  0  0  0  0
    5.7428   -0.4213   -0.0742 C   0  0  0  0  0  0  0  0  0  0  0  0
    5.3749    0.5881   -1.0244 C   0  0  0  0  0  0  0  0  0  0  0  0
    4.1611    1.0597   -1.2001 N   0  0  0  0  0  0  0  0  0  0  0  0
    3.2108    0.5267   -0.3914 C   0  0  0  0  0  0  0  0  0  0  0  0
    1.8274    0.8014   -0.3226 C   0  0  0  0  0  0  0  0  0  0  0  0
    1.0499    1.7545   -1.1143 C   0  0  0  0  0  0  0  0  0  0  0  0
   -0.2734    1.5021   -1.5162 C   0  0  0  0  0  0  0  0  0  0  0  0
   -0.9682    2.4290   -2.2930 C   0  0  0  0  0  0  0  0  0  0  0  0
   -2.6181    2.1165   -2.8000 Cl  0  0  0  0  0  0  0  0  0  0  0  0
   -0.3381    3.6081   -2.6767 C   0  0  0  0  0  0  0  0  0  0  0  0
   -0.8246    4.6647   -3.4399 N   0  0  0  0  0  0  0  0  0  0  0  0
    0.1279    5.6706   -3.6106 C   0  0  0  0  0  0  0  0  0  0  0  0
   -0.0423    6.7025   -4.2315 O   0  0  0  0  0  0  0  0  0  0  0  0
    1.3895    5.2025   -2.8670 C   0  0  0  0  0  0  0  0  0  0  0  0
    0.9930    3.8638   -2.2935 C   0  0  0  0  0  0  0  0  0  0  0  0
    1.6888    2.9505   -1.5256 C   0  0  0  0  0  0  0  0  0  0  0  0
    6.4583    1.1391   -1.9361 C   0  0  0  0  0  0  0  0  0  0  0  0
    6.1002    2.2795   -2.5434 F   0  0  0  0  0  0  0  0  0  0  0  0
    7.6005    1.3818   -1.2382 F   0  0  0  0  0  0  0  0  0  0  0  0
    6.7801    0.2386   -2.9032 F   0  0  0  0  0  0  0  0  0  0  0  0
    0.1977   -0.7303    2.2051 H   0  0  0  0  0  0  0  0  0  0  0  0
    5.0275   -1.7377    1.4791 H   0  0  0  0  0  0  0  0  0  0  0  0
    6.7796   -0.7351   -0.0124 H   0  0  0  0  0  0  0  0  0  0  0  0
   -0.7683    0.5767   -1.2523 H   0  0  0  0  0  0  0  0  0  0  0  0
   -1.7565    4.7182   -3.8339 H   0  0  0  0  0  0  0  0  0  0  0  0
    1.6564    5.9425   -2.1064 H   0  0  0  0  0  0  0  0  0  0  0  0
    2.2245    5.1418   -3.5717 H   0  0  0  0  0  0  0  0  0  0  0  0
    2.7175    3.1377   -1.2393 H   0  0  0  0  0  0  0  0  0  0  0  0
  1  2  1  0
  2  3  1  0
  2  4  1  0
  2 28  1  0
  4  5  1  0
  4 12  1  0
  5  6  2  0
  6  7  1  0
  6 11  1  0
  7  8  2  0
  7 29  1  0
  8  9  1  0
  8 30  1  0
  9 10  2  0
  9 24  1  0
 10 11  1  0
 11 12  2  0
 12 13  1  0
 13 14  2  0
 13 23  1  0
 14 15  1  0
 14 31  1  0
 15 16  1  0
 15 17  2  0
 17 18  1  0
 17 22  1  0
 18 19  1  0
 18 32  1  0
 19 20  2  0
 19 21  1  0
 21 22  1  0
 21 33  1  0
 21 34  1  0
 22 23  2  0
 23 35  1  0
 24 25  1  0
 24 26  1  0
 24 27  1  0
M  END
>  <group_name>  (1) 
JNS

>  <molecule_index>  (1) 
01554

>  <conformer_index>  (1) 
04

>  <method>  (1) 
b3lyp-d3bj

>  <basis>  (1) 
dzvp

>  <program>  (1) 
psi4

>  <initial_energy>  (1) 
-1172413.9855994144 kilocalorie / mole

>  <final_energy>  (1) 
-1172456.950021505 kilocalorie / mole

$$$$
