JNS-01795-05
     RDKit          3D

 43 46  0  0  0  0  0  0  0  0999 V2000
   -0.3406    1.8672    0.3240 C   0  0  0  0  0  0  0  0  0  0  0  0
   -0.0982    0.4348   -0.1899 C   0  0  0  0  0  0  0  0  0  0  0  0
   -0.8339   -0.5560    0.7422 C   0  0  0  0  0  0  0  0  0  0  0  0
   -0.6636    0.3204   -1.6236 C   0  0  0  0  0  0  0  0  0  0  0  0
    1.3964    0.1660   -0.1727 C   0  0  0  0  0  0  0  0  0  0  0  0
    2.2750    1.0316    0.3042 N   0  0  0  0  0  0  0  0  0  0  0  0
    3.5162    0.4428    0.1551 C   0  0  0  0  0  0  0  0  0  0  0  0
    3.3732   -0.8367   -0.4408 C   0  0  0  0  0  0  0  0  0  0  0  0
    4.3410   -1.6882   -0.7411 N   0  0  0  0  0  0  0  0  0  0  0  0
    5.5697   -1.2506   -0.4274 C   0  0  0  0  0  0  0  0  0  0  0  0
    5.8532   -0.0094    0.1668 C   0  0  0  0  0  0  0  0  0  0  0  0
    4.8060    0.8690    0.4705 C   0  0  0  0  0  0  0  0  0  0  0  0
    6.6814   -2.2176   -0.7786 C   0  0  0  0  0  0  0  0  0  0  0  0
    7.8990   -1.7425   -0.4073 F   0  0  0  0  0  0  0  0  0  0  0  0
    6.5208   -3.4163   -0.1708 F   0  0  0  0  0  0  0  0  0  0  0  0
    6.7393   -2.4537   -2.1120 F   0  0  0  0  0  0  0  0  0  0  0  0
    2.0081   -1.0028   -0.6426 N   0  0  0  0  0  0  0  0  0  0  0  0
    1.4516   -2.1855   -1.2357 C   0  0  0  0  0  0  0  0  0  0  0  0
    1.0536   -3.2367   -0.4207 C   0  0  0  0  0  0  0  0  0  0  0  0
    0.5458   -4.4008   -1.0223 C   0  0  0  0  0  0  0  0  0  0  0  0
    0.4771   -4.4678   -2.4452 C   0  0  0  0  0  0  0  0  0  0  0  0
   -0.0472   -5.7044   -2.7693 N   0  0  0  0  0  0  0  0  0  0  0  0
   -0.3025   -6.4145   -1.6055 C   0  0  0  0  0  0  0  0  0  0  0  0
    0.0445   -5.6506   -0.5166 C   0  0  0  0  0  0  0  0  0  0  0  0
    0.9059   -3.4159   -3.2649 C   0  0  0  0  0  0  0  0  0  0  0  0
    1.3982   -2.2747   -2.6433 C   0  0  0  0  0  0  0  0  0  0  0  0
   -1.4165    2.0710    0.3157 H   0  0  0  0  0  0  0  0  0  0  0  0
    0.0330    1.9947    1.3423 H   0  0  0  0  0  0  0  0  0  0  0  0
    0.1603    2.6064   -0.3060 H   0  0  0  0  0  0  0  0  0  0  0  0
   -0.4142   -0.5267    1.7531 H   0  0  0  0  0  0  0  0  0  0  0  0
   -0.7832   -1.5817    0.3729 H   0  0  0  0  0  0  0  0  0  0  0  0
   -1.8905   -0.2747    0.8065 H   0  0  0  0  0  0  0  0  0  0  0  0
   -0.1228    0.9786   -2.3118 H   0  0  0  0  0  0  0  0  0  0  0  0
   -0.6135   -0.6990   -2.0092 H   0  0  0  0  0  0  0  0  0  0  0  0
   -1.7150    0.6269   -1.6206 H   0  0  0  0  0  0  0  0  0  0  0  0
    6.8802    0.2586    0.3851 H   0  0  0  0  0  0  0  0  0  0  0  0
    4.9886    1.8364    0.9292 H   0  0  0  0  0  0  0  0  0  0  0  0
    1.1442   -3.1521    0.6583 H   0  0  0  0  0  0  0  0  0  0  0  0
   -0.1927   -6.0507   -3.7067 H   0  0  0  0  0  0  0  0  0  0  0  0
   -0.7137   -7.4143   -1.6509 H   0  0  0  0  0  0  0  0  0  0  0  0
   -0.0443   -5.9475    0.5200 H   0  0  0  0  0  0  0  0  0  0  0  0
    0.8660   -3.4841   -4.3488 H   0  0  0  0  0  0  0  0  0  0  0  0
    1.7505   -1.4357   -3.2352 H   0  0  0  0  0  0  0  0  0  0  0  0
  1  2  1  0
  1 27  1  0
  1 28  1  0
  1 29  1  0
  2  3  1  0
  2  4  1  0
  2  5  1  0
  3 30  1  0
  3 31  1  0
  3 32  1  0
  4 33  1  0
  4 34  1  0
  4 35  1  0
  5  6  2  0
  5 17  1  0
  6  7  1  0
  7  8  2  0
  7 12  1  0
  8  9  1  0
  8 17  1  0
  9 10  2  0
 10 11  1  0
 10 13  1  0
 11 12  2  0
 11 36  1  0
 12 37  1  0
 13 14  1  0
 13 15  1  0
 13 16  1  0
 17 18  1  0
 18 19  2  0
 18 26  1  0
 19 20  1  0
 19 38  1  0
 20 21  2  0
 20 24  1  0
 21 22  1  0
 21 25  1  0
 22 23  1  0
 22 39  1  0
 23 24  2  0
 23 40  1  0
 24 41  1  0
 25 26  2  0
 25 42  1  0
 26 43  1  0
M  END
>  <group_name>  (1) 
JNS

>  <molecule_index>  (1) 
01795

>  <conformer_index>  (1) 
05

>  <method>  (1) 
b3lyp-d3bj

>  <basis>  (1) 
dzvp

>  <program>  (1) 
psi4

>  <initial_energy>  (1) 
-786252.1835812874 kilocalorie / mole

>  <final_energy>  (1) 
-786318.4605812078 kilocalorie / mole

$$$$
