JNS-02157-03
     RDKit          3D

 42 45  0  0  0  0  0  0  0  0999 V2000
   -1.0786    3.7816   -0.7077 C   0  0  0  0  0  0  0  0  0  0  0  0
   -1.4240    2.4682    0.0052 C   0  0  2  0  0  0  0  0  0  0  0  0
   -2.3343    2.6786    1.2365 C   0  0  0  0  0  0  0  0  0  0  0  0
   -1.4867    3.1478    2.3732 C   0  0  0  0  0  0  0  0  0  0  0  0
   -0.1207    3.0378    2.4208 C   0  0  0  0  0  0  0  0  0  0  0  0
    0.7092    2.4063    1.3480 C   0  0  0  0  0  0  0  0  0  0  0  0
   -0.1950    1.7447    0.3967 N   0  0  0  0  0  0  0  0  0  0  0  0
    0.0947    0.5647   -0.2214 C   0  0  0  0  0  0  0  0  0  0  0  0
   -0.6516   -0.0030   -1.0187 O   0  0  0  0  0  0  0  0  0  0  0  0
    1.4099   -0.0967    0.1262 C   0  0  0  0  0  0  0  0  0  0  0  0
    1.4113   -1.2253    0.9487 C   0  0  0  0  0  0  0  0  0  0  0  0
    2.6174   -1.8775    1.1986 C   0  0  0  0  0  0  0  0  0  0  0  0
    3.7814   -1.4780    0.6753 N   0  0  0  0  0  0  0  0  0  0  0  0
    3.7903   -0.4117   -0.1224 C   0  0  0  0  0  0  0  0  0  0  0  0
    2.6269    0.3150   -0.4278 C   0  0  0  0  0  0  0  0  0  0  0  0
    2.6559    1.7076   -1.4837 Cl  0  0  0  0  0  0  0  0  0  0  0  0
    5.1564   -0.0198   -0.6856 C   0  0  0  0  0  0  0  0  0  0  0  0
    5.1545   -0.0496   -2.0412 F   0  0  0  0  0  0  0  0  0  0  0  0
    6.1247   -0.8418   -0.2633 F   0  0  0  0  0  0  0  0  0  0  0  0
    5.4949    1.2396   -0.3089 F   0  0  0  0  0  0  0  0  0  0  0  0
    0.3457    3.5974    3.5816 N   0  0  0  0  0  0  0  0  0  0  0  0
   -0.6558    4.0569    4.2680 N   0  0  0  0  0  0  0  0  0  0  0  0
   -1.8006    3.7944    3.5437 N   0  0  0  0  0  0  0  0  0  0  0  0
   -3.0714    4.1409    4.0527 C   0  0  0  0  0  0  0  0  0  0  0  0
   -4.1092    3.5119    3.4919 N   0  0  0  0  0  0  0  0  0  0  0  0
   -5.3199    3.8263    3.9653 C   0  0  0  0  0  0  0  0  0  0  0  0
   -5.4591    4.7472    4.9970 C   0  0  0  0  0  0  0  0  0  0  0  0
   -6.6773    5.0563    5.4829 F   0  0  0  0  0  0  0  0  0  0  0  0
   -4.3127    5.3479    5.5129 C   0  0  0  0  0  0  0  0  0  0  0  0
   -3.1057    5.0495    5.0287 N   0  0  0  0  0  0  0  0  0  0  0  0
   -0.4004    3.5911   -1.5441 H   0  0  0  0  0  0  0  0  0  0  0  0
   -1.9903    4.2386   -1.1045 H   0  0  0  0  0  0  0  0  0  0  0  0
   -0.6069    4.5052   -0.0356 H   0  0  0  0  0  0  0  0  0  0  0  0
   -1.9351    1.8094   -0.6957 H   0  0  0  0  0  0  0  0  0  0  0  0
   -2.8365    1.7433    1.5035 H   0  0  0  0  0  0  0  0  0  0  0  0
   -3.1221    3.3979    0.9997 H   0  0  0  0  0  0  0  0  0  0  0  0
    1.3287    3.1555    0.8393 H   0  0  0  0  0  0  0  0  0  0  0  0
    1.3861    1.6711    1.7846 H   0  0  0  0  0  0  0  0  0  0  0  0
    0.4825   -1.5873    1.3796 H   0  0  0  0  0  0  0  0  0  0  0  0
    2.6548   -2.7549    1.8403 H   0  0  0  0  0  0  0  0  0  0  0  0
   -6.1855    3.3358    3.5248 H   0  0  0  0  0  0  0  0  0  0  0  0
   -4.3739    6.0810    6.3152 H   0  0  0  0  0  0  0  0  0  0  0  0
  1  2  1  0
  1 31  1  0
  1 32  1  0
  1 33  1  0
  2  3  1  0
  2  7  1  0
  2 34  1  6
  3  4  1  0
  3 35  1  0
  3 36  1  0
  4  5  2  0
  4 23  1  0
  5  6  1  0
  5 21  1  0
  6  7  1  0
  6 37  1  0
  6 38  1  0
  7  8  1  0
  8  9  2  0
  8 10  1  0
 10 11  2  0
 10 15  1  0
 11 12  1  0
 11 39  1  0
 12 13  2  0
 12 40  1  0
 13 14  1  0
 14 15  2  0
 14 17  1  0
 15 16  1  0
 17 18  1  0
 17 19  1  0
 17 20  1  0
 21 22  2  0
 22 23  1  0
 23 24  1  0
 24 25  2  0
 24 30  1  0
 25 26  1  0
 26 27  2  0
 26 41  1  0
 27 28  1  0
 27 29  1  0
 29 30  2  0
 29 42  1  0
M  END
>  <group_name>  (1) 
JNS

>  <molecule_index>  (1) 
02157

>  <conformer_index>  (1) 
03

>  <method>  (1) 
b3lyp-d3bj

>  <basis>  (1) 
dzvp

>  <program>  (1) 
psi4

>  <initial_energy>  (1) 
-1238233.366449891 kilocalorie / mole

>  <final_energy>  (1) 
-1238276.563083763 kilocalorie / mole

$$$$
