JNS-01384-02
     RDKit          3D

 36 39  0  0  0  0  0  0  0  0999 V2000
   -0.7047    1.1088   -0.4687 C   0  0  0  0  0  0  0  0  0  0  0  0
   -0.0746   -0.1540    0.1264 C   0  0  0  0  0  0  0  0  0  0  0  0
    1.4215   -0.1507    0.0435 C   0  0  0  0  0  0  0  0  0  0  0  0
    2.1394    0.6654   -0.7032 N   0  0  0  0  0  0  0  0  0  0  0  0
    3.4613    0.3344   -0.4516 C   0  0  0  0  0  0  0  0  0  0  0  0
    3.5281   -0.7257    0.4916 C   0  0  0  0  0  0  0  0  0  0  0  0
    4.6192   -1.2954    0.9753 N   0  0  0  0  0  0  0  0  0  0  0  0
    5.7623   -0.7847    0.4923 C   0  0  0  0  0  0  0  0  0  0  0  0
    5.8412    0.2590   -0.4440 C   0  0  0  0  0  0  0  0  0  0  0  0
    4.6665    0.8413   -0.9360 C   0  0  0  0  0  0  0  0  0  0  0  0
    7.0144   -1.4331    1.0469 C   0  0  0  0  0  0  0  0  0  0  0  0
    7.0873   -1.3117    2.3938 F   0  0  0  0  0  0  0  0  0  0  0  0
    8.1399   -0.8728    0.5343 F   0  0  0  0  0  0  0  0  0  0  0  0
    7.0632   -2.7559    0.7636 F   0  0  0  0  0  0  0  0  0  0  0  0
    2.2048   -1.0297    0.7936 N   0  0  0  0  0  0  0  0  0  0  0  0
    1.7683   -2.0291    1.7136 C   0  0  0  0  0  0  0  0  0  0  0  0
    1.0154   -3.1143    1.2394 C   0  0  0  0  0  0  0  0  0  0  0  0
    0.6350   -4.0330    2.1995 C   0  0  0  0  0  0  0  0  0  0  0  0
    0.9707   -3.9446    3.5609 C   0  0  0  0  0  0  0  0  0  0  0  0
    0.4362   -5.0491    4.2413 N   0  0  0  0  0  0  0  0  0  0  0  0
   -0.1598   -5.7164    3.3122 C   0  0  0  0  0  0  0  0  0  0  0  0
   -0.8268   -6.8609    3.4514 O   0  0  0  0  0  0  0  0  0  0  0  0
   -0.1071   -5.1968    2.0345 O   0  0  0  0  0  0  0  0  0  0  0  0
    1.7370   -2.8670    4.0093 C   0  0  0  0  0  0  0  0  0  0  0  0
    2.1257   -1.9104    3.0678 C   0  0  0  0  0  0  0  0  0  0  0  0
   -1.7946    1.0529   -0.3916 H   0  0  0  0  0  0  0  0  0  0  0  0
   -0.3636    2.0027    0.0603 H   0  0  0  0  0  0  0  0  0  0  0  0
   -0.4321    1.2241   -1.5200 H   0  0  0  0  0  0  0  0  0  0  0  0
   -0.4584   -1.0416   -0.3925 H   0  0  0  0  0  0  0  0  0  0  0  0
   -0.3662   -0.2786    1.1758 H   0  0  0  0  0  0  0  0  0  0  0  0
    6.8115    0.6072   -0.7777 H   0  0  0  0  0  0  0  0  0  0  0  0
    4.6919    1.6508   -1.6596 H   0  0  0  0  0  0  0  0  0  0  0  0
    0.7710   -3.2241    0.1884 H   0  0  0  0  0  0  0  0  0  0  0  0
   -1.1602   -7.1407    2.5814 H   0  0  0  0  0  0  0  0  0  0  0  0
    2.0204   -2.7791    5.0531 H   0  0  0  0  0  0  0  0  0  0  0  0
    2.7269   -1.0604    3.3727 H   0  0  0  0  0  0  0  0  0  0  0  0
  1  2  1  0
  1 26  1  0
  1 27  1  0
  1 28  1  0
  2  3  1  0
  2 29  1  0
  2 30  1  0
  3  4  2  0
  3 15  1  0
  4  5  1  0
  5  6  2  0
  5 10  1  0
  6  7  1  0
  6 15  1  0
  7  8  2  0
  8  9  1  0
  8 11  1  0
  9 10  2  0
  9 31  1  0
 10 32  1  0
 11 12  1  0
 11 13  1  0
 11 14  1  0
 15 16  1  0
 16 17  2  0
 16 25  1  0
 17 18  1  0
 17 33  1  0
 18 19  2  0
 18 23  1  0
 19 20  1  0
 19 24  1  0
 20 21  2  0
 21 22  1  0
 21 23  1  0
 22 34  1  0
 24 25  2  0
 24 35  1  0
 25 36  1  0
M  END
>  <group_name>  (1) 
JNS

>  <molecule_index>  (1) 
01384

>  <conformer_index>  (1) 
02

>  <method>  (1) 
b3lyp-d3bj

>  <basis>  (1) 
dzvp

>  <program>  (1) 
psi4

>  <initial_energy>  (1) 
-806658.0685784062 kilocalorie / mole

>  <final_energy>  (1) 
-806717.6732783035 kilocalorie / mole

$$$$
