JNS-02240-08
     RDKit          3D

 51 55  0  0  0  0  0  0  0  0999 V2000
    1.6105    5.3455    3.8954 C   0  0  0  0  0  0  0  0  0  0  0  0
    0.5712    4.4704    3.2506 C   0  0  0  0  0  0  0  0  0  0  0  0
   -0.5685    4.2516    3.9111 N   0  0  0  0  0  0  0  0  0  0  0  0
   -1.4896    3.4407    3.3517 C   0  0  0  0  0  0  0  0  0  0  0  0
   -2.7194    3.2629    4.1738 C   0  0  0  0  0  0  0  0  0  0  0  0
   -3.4932    2.1834    3.9765 N   0  0  0  0  0  0  0  0  0  0  0  0
   -4.5686    2.0568    4.7603 C   0  0  0  0  0  0  0  0  0  0  0  0
   -4.8892    3.0053    5.7347 C   0  0  0  0  0  0  0  0  0  0  0  0
   -4.1319    4.0934    5.9345 N   0  0  0  0  0  0  0  0  0  0  0  0
   -3.0504    4.2145    5.1610 C   0  0  0  0  0  0  0  0  0  0  0  0
   -1.2811    2.8395    2.0942 C   0  0  0  0  0  0  0  0  0  0  0  0
   -2.2649    1.9197    1.3977 C   0  0  0  0  0  0  0  0  0  0  0  0
   -1.8979    1.5829   -0.0613 C   0  0  1  0  0  0  0  0  0  0  0  0
   -2.3086    2.6302   -1.1097 C   0  0  0  0  0  0  0  0  0  0  0  0
   -1.5039    3.9346   -1.0146 C   0  0  0  0  0  0  0  0  0  0  0  0
    0.0007    3.6419   -0.9598 C   0  0  0  0  0  0  0  0  0  0  0  0
    0.3158    2.5970    0.1311 C   0  0  2  0  0  0  0  0  0  0  0  0
   -0.4435    1.3743   -0.1322 N   0  0  0  0  0  0  0  0  0  0  0  0
    0.0655    0.1130   -0.1164 C   0  0  0  0  0  0  0  0  0  0  0  0
   -0.6112   -0.9084   -0.2318 O   0  0  0  0  0  0  0  0  0  0  0  0
    1.5683   -0.0144    0.0026 C   0  0  0  0  0  0  0  0  0  0  0  0
    2.3396   -0.2257   -1.1414 C   0  0  0  0  0  0  0  0  0  0  0  0
    3.7151   -0.4075   -1.0043 C   0  0  0  0  0  0  0  0  0  0  0  0
    4.3359   -0.3889    0.1797 N   0  0  0  0  0  0  0  0  0  0  0  0
    3.6081   -0.1981    1.2790 C   0  0  0  0  0  0  0  0  0  0  0  0
    2.2162   -0.0112    1.2430 C   0  0  0  0  0  0  0  0  0  0  0  0
    1.2731    0.2278    2.6927 Cl  0  0  0  0  0  0  0  0  0  0  0  0
    4.3888   -0.1824    2.5927 C   0  0  0  0  0  0  0  0  0  0  0  0
    4.2364    1.0038    3.2352 F   0  0  0  0  0  0  0  0  0  0  0  0
    3.9583   -1.1551    3.4330 F   0  0  0  0  0  0  0  0  0  0  0  0
    5.7003   -0.3688    2.3961 F   0  0  0  0  0  0  0  0  0  0  0  0
   -0.0433    3.1414    1.4997 C   0  0  0  0  0  0  0  0  0  0  0  0
    0.8684    3.9440    2.0513 N   0  0  0  0  0  0  0  0  0  0  0  0
    1.9927    6.0753    3.1763 H   0  0  0  0  0  0  0  0  0  0  0  0
    1.1956    5.8577    4.7643 H   0  0  0  0  0  0  0  0  0  0  0  0
    2.4601    4.7334    4.2174 H   0  0  0  0  0  0  0  0  0  0  0  0
   -5.1903    1.1764    4.6084 H   0  0  0  0  0  0  0  0  0  0  0  0
   -5.7699    2.8894    6.3633 H   0  0  0  0  0  0  0  0  0  0  0  0
   -2.4162    5.0814    5.3139 H   0  0  0  0  0  0  0  0  0  0  0  0
   -3.2725    2.3423    1.4371 H   0  0  0  0  0  0  0  0  0  0  0  0
   -2.3209    0.9867    1.9644 H   0  0  0  0  0  0  0  0  0  0  0  0
   -2.3642    0.6311   -0.3148 H   0  0  0  0  0  0  0  0  0  0  0  0
   -3.3809    2.8304   -1.0109 H   0  0  0  0  0  0  0  0  0  0  0  0
   -2.1562    2.1830   -2.0996 H   0  0  0  0  0  0  0  0  0  0  0  0
   -1.8017    4.4952   -0.1213 H   0  0  0  0  0  0  0  0  0  0  0  0
   -1.7299    4.5763   -1.8726 H   0  0  0  0  0  0  0  0  0  0  0  0
    0.5732    4.5499   -0.7497 H   0  0  0  0  0  0  0  0  0  0  0  0
    0.3454    3.2411   -1.9205 H   0  0  0  0  0  0  0  0  0  0  0  0
    1.3836    2.3834    0.1248 H   0  0  0  0  0  0  0  0  0  0  0  0
    1.8694   -0.2525   -2.1201 H   0  0  0  0  0  0  0  0  0  0  0  0
    4.3458   -0.5729   -1.8750 H   0  0  0  0  0  0  0  0  0  0  0  0
  1  2  1  0
  1 34  1  0
  1 35  1  0
  1 36  1  0
  2  3  2  0
  2 33  1  0
  3  4  1  0
  4  5  1  0
  4 11  2  0
  5  6  2  0
  5 10  1  0
  6  7  1  0
  7  8  2  0
  7 37  1  0
  8  9  1  0
  8 38  1  0
  9 10  2  0
 10 39  1  0
 11 12  1  0
 11 32  1  0
 12 13  1  0
 12 40  1  0
 12 41  1  0
 13 14  1  0
 13 18  1  0
 13 42  1  6
 14 15  1  0
 14 43  1  0
 14 44  1  0
 15 16  1  0
 15 45  1  0
 15 46  1  0
 16 17  1  0
 16 47  1  0
 16 48  1  0
 17 18  1  0
 17 32  1  0
 17 49  1  1
 18 19  1  0
 19 20  2  0
 19 21  1  0
 21 22  2  0
 21 26  1  0
 22 23  1  0
 22 50  1  0
 23 24  2  0
 23 51  1  0
 24 25  1  0
 25 26  2  0
 25 28  1  0
 26 27  1  0
 28 29  1  0
 28 30  1  0
 28 31  1  0
 32 33  2  0
M  END
>  <group_name>  (1) 
JNS

>  <molecule_index>  (1) 
02240

>  <conformer_index>  (1) 
08

>  <method>  (1) 
b3lyp-d3bj

>  <basis>  (1) 
dzvp

>  <program>  (1) 
psi4

>  <initial_energy>  (1) 
-1263130.499589043 kilocalorie / mole

>  <final_energy>  (1) 
-1263144.3567919228 kilocalorie / mole

$$$$
