JNS-01554-01
     RDKit          3D

 35 38  0  0  0  0  0  0  0  0999 V2000
   -0.1331    0.5299    2.3249 F   0  0  0  0  0  0  0  0  0  0  0  0
    0.0417   -0.0836    1.1154 C   0  0  0  0  0  0  0  0  0  0  0  0
   -0.2904   -1.3823    1.2577 F   0  0  0  0  0  0  0  0  0  0  0  0
    1.4151    0.0338    0.6912 N   0  0  0  0  0  0  0  0  0  0  0  0
    2.3259   -0.8517    1.1845 N   0  0  0  0  0  0  0  0  0  0  0  0
    3.4540   -0.5338    0.5332 C   0  0  0  0  0  0  0  0  0  0  0  0
    4.7467   -1.1149    0.6246 C   0  0  0  0  0  0  0  0  0  0  0  0
    5.7190   -0.5729   -0.1817 C   0  0  0  0  0  0  0  0  0  0  0  0
    5.4034    0.5225   -1.0534 C   0  0  0  0  0  0  0  0  0  0  0  0
    4.2236    1.0895   -1.1660 N   0  0  0  0  0  0  0  0  0  0  0  0
    3.2559    0.5584   -0.3759 C   0  0  0  0  0  0  0  0  0  0  0  0
    1.9037    0.9242   -0.2370 C   0  0  0  0  0  0  0  0  0  0  0  0
    1.1611    2.0092   -0.8743 C   0  0  0  0  0  0  0  0  0  0  0  0
    0.2273    2.7835   -0.1610 C   0  0  0  0  0  0  0  0  0  0  0  0
   -0.4538    3.8296   -0.7877 C   0  0  0  0  0  0  0  0  0  0  0  0
   -1.6171    4.7984    0.0953 Cl  0  0  0  0  0  0  0  0  0  0  0  0
   -0.1863    4.1115   -2.1231 C   0  0  0  0  0  0  0  0  0  0  0  0
   -0.7281    5.0941   -2.9446 N   0  0  0  0  0  0  0  0  0  0  0  0
   -0.1834    5.0629   -4.2301 C   0  0  0  0  0  0  0  0  0  0  0  0
   -0.4853    5.8110   -5.1394 O   0  0  0  0  0  0  0  0  0  0  0  0
    0.8406    3.9162   -4.2382 C   0  0  0  0  0  0  0  0  0  0  0  0
    0.7671    3.3580   -2.8382 C   0  0  0  0  0  0  0  0  0  0  0  0
    1.4408    2.3183   -2.2274 C   0  0  0  0  0  0  0  0  0  0  0  0
    6.5185    1.0682   -1.9285 C   0  0  0  0  0  0  0  0  0  0  0  0
    7.5883    1.4358   -1.1732 F   0  0  0  0  0  0  0  0  0  0  0  0
    6.1459    2.1289   -2.6567 F   0  0  0  0  0  0  0  0  0  0  0  0
    6.9644    0.1113   -2.7883 F   0  0  0  0  0  0  0  0  0  0  0  0
   -0.6157    0.3876    0.3844 H   0  0  0  0  0  0  0  0  0  0  0  0
    4.9476   -1.9437    1.2968 H   0  0  0  0  0  0  0  0  0  0  0  0
    6.7322   -0.9616   -0.1706 H   0  0  0  0  0  0  0  0  0  0  0  0
    0.0578    2.6163    0.8975 H   0  0  0  0  0  0  0  0  0  0  0  0
   -1.4304    5.7680   -2.6629 H   0  0  0  0  0  0  0  0  0  0  0  0
    1.8281    4.3130   -4.4932 H   0  0  0  0  0  0  0  0  0  0  0  0
    0.5690    3.1925   -5.0127 H   0  0  0  0  0  0  0  0  0  0  0  0
    2.1841    1.7409   -2.7666 H   0  0  0  0  0  0  0  0  0  0  0  0
  1  2  1  0
  2  3  1  0
  2  4  1  0
  2 28  1  0
  4  5  1  0
  4 12  1  0
  5  6  2  0
  6  7  1  0
  6 11  1  0
  7  8  2  0
  7 29  1  0
  8  9  1  0
  8 30  1  0
  9 10  2  0
  9 24  1  0
 10 11  1  0
 11 12  2  0
 12 13  1  0
 13 14  2  0
 13 23  1  0
 14 15  1  0
 14 31  1  0
 15 16  1  0
 15 17  2  0
 17 18  1  0
 17 22  1  0
 18 19  1  0
 18 32  1  0
 19 20  2  0
 19 21  1  0
 21 22  1  0
 21 33  1  0
 21 34  1  0
 22 23  2  0
 23 35  1  0
 24 25  1  0
 24 26  1  0
 24 27  1  0
M  END
>  <group_name>  (1) 
JNS

>  <molecule_index>  (1) 
01554

>  <conformer_index>  (1) 
01

>  <method>  (1) 
b3lyp-d3bj

>  <basis>  (1) 
dzvp

>  <program>  (1) 
psi4

>  <initial_energy>  (1) 
-1172411.1375204155 kilocalorie / mole

>  <final_energy>  (1) 
-1172455.5209588509 kilocalorie / mole

$$$$
