JNS-01972-03
     RDKit          3D

 38 40  0  0  0  0  0  0  0  0999 V2000
   -0.6515    0.5344   -0.0388 F   0  0  0  0  0  0  0  0  0  0  0  0
    0.0717   -0.4736    0.5114 C   0  0  0  0  0  0  0  0  0  0  0  0
   -0.3994   -0.6415    1.7843 F   0  0  0  0  0  0  0  0  0  0  0  0
   -0.2329   -1.5946   -0.1643 F   0  0  0  0  0  0  0  0  0  0  0  0
    1.5630   -0.1818    0.4977 C   0  0  0  0  0  0  0  0  0  0  0  0
    2.3326   -1.2381    0.2090 N   0  0  0  0  0  0  0  0  0  0  0  0
    3.6473   -1.0870    0.1289 C   0  0  0  0  0  0  0  0  0  0  0  0
    4.3074    0.1512    0.3225 C   0  0  0  0  0  0  0  0  0  0  0  0
    3.4821    1.2408    0.6457 C   0  0  0  0  0  0  0  0  0  0  0  0
    2.0914    1.0967    0.7484 C   0  0  0  0  0  0  0  0  0  0  0  0
    1.2898    2.2916    1.1325 C   0  0  0  0  0  0  0  0  0  0  0  0
    1.3519    3.4520    0.3448 C   0  0  0  0  0  0  0  0  0  0  0  0
    0.6416    4.5982    0.7095 C   0  0  0  0  0  0  0  0  0  0  0  0
   -0.1324    4.6021    1.8745 C   0  0  0  0  0  0  0  0  0  0  0  0
   -0.1909    3.4527    2.6693 C   0  0  0  0  0  0  0  0  0  0  0  0
    0.5143    2.3046    2.3017 C   0  0  0  0  0  0  0  0  0  0  0  0
    5.6908    0.2622    0.1592 N   0  0  0  0  0  0  0  0  0  0  0  0
    6.2831    1.5990    0.2400 C   0  0  0  0  0  0  0  0  0  0  0  0
    7.7022    1.5875   -0.3249 C   0  0  0  0  0  0  0  0  0  0  0  0
    8.5112    0.6012    0.3929 N   0  0  0  0  0  0  0  0  0  0  0  0
    7.9454   -0.7376    0.2137 C   0  0  0  0  0  0  0  0  0  0  0  0
    6.5349   -0.7664    0.7926 C   0  0  0  0  0  0  0  0  0  0  0  0
    4.2092   -1.9814   -0.1282 H   0  0  0  0  0  0  0  0  0  0  0  0
    3.9058    2.2139    0.8629 H   0  0  0  0  0  0  0  0  0  0  0  0
    1.9416    3.4457   -0.5686 H   0  0  0  0  0  0  0  0  0  0  0  0
    0.6881    5.4847    0.0822 H   0  0  0  0  0  0  0  0  0  0  0  0
   -0.6858    5.4929    2.1601 H   0  0  0  0  0  0  0  0  0  0  0  0
   -0.7858    3.4491    3.5789 H   0  0  0  0  0  0  0  0  0  0  0  0
    0.4670    1.4176    2.9253 H   0  0  0  0  0  0  0  0  0  0  0  0
    6.3065    1.9649    1.2800 H   0  0  0  0  0  0  0  0  0  0  0  0
    5.6788    2.2891   -0.3544 H   0  0  0  0  0  0  0  0  0  0  0  0
    8.1431    2.5805   -0.1907 H   0  0  0  0  0  0  0  0  0  0  0  0
    7.6443    1.3804   -1.4085 H   0  0  0  0  0  0  0  0  0  0  0  0
    9.4681    0.6224    0.0482 H   0  0  0  0  0  0  0  0  0  0  0  0
    8.5639   -1.4638    0.7507 H   0  0  0  0  0  0  0  0  0  0  0  0
    7.8984   -1.0410   -0.8476 H   0  0  0  0  0  0  0  0  0  0  0  0
    6.1011   -1.7523    0.6294 H   0  0  0  0  0  0  0  0  0  0  0  0
    6.5854   -0.5922    1.8792 H   0  0  0  0  0  0  0  0  0  0  0  0
  1  2  1  0
  2  3  1  0
  2  4  1  0
  2  5  1  0
  5  6  2  0
  5 10  1  0
  6  7  1  0
  7  8  2  0
  7 23  1  0
  8  9  1  0
  8 17  1  0
  9 10  2  0
  9 24  1  0
 10 11  1  0
 11 12  2  0
 11 16  1  0
 12 13  1  0
 12 25  1  0
 13 14  2  0
 13 26  1  0
 14 15  1  0
 14 27  1  0
 15 16  2  0
 15 28  1  0
 16 29  1  0
 17 18  1  0
 17 22  1  0
 18 19  1  0
 18 30  1  0
 18 31  1  0
 19 20  1  0
 19 32  1  0
 19 33  1  0
 20 21  1  0
 20 34  1  0
 21 22  1  0
 21 35  1  0
 21 36  1  0
 22 37  1  0
 22 38  1  0
M  END
>  <group_name>  (1) 
JNS

>  <molecule_index>  (1) 
01972

>  <conformer_index>  (1) 
03

>  <method>  (1) 
b3lyp-d3bj

>  <basis>  (1) 
dzvp

>  <program>  (1) 
psi4

>  <initial_energy>  (1) 
-679795.1893432501 kilocalorie / mole

>  <final_energy>  (1) 
-679801.7493656774 kilocalorie / mole

$$$$
