JNS-02002-05
     RDKit          3D

 38 40  0  0  0  0  0  0  0  0999 V2000
    1.3397   -1.5977   -1.9229 C   0  0  0  0  0  0  0  0  0  0  0  0
    1.8928   -0.6403   -0.8969 C   0  0  0  0  0  0  0  0  0  0  0  0
    1.4950   -0.8429    0.3722 N   0  0  0  0  0  0  0  0  0  0  0  0
    1.9753   -0.0006    1.2917 C   0  0  0  0  0  0  0  0  0  0  0  0
    2.8424    1.0549    1.0495 C   0  0  0  0  0  0  0  0  0  0  0  0
    3.2661    1.2760   -0.2840 C   0  0  0  0  0  0  0  0  0  0  0  0
    2.7614    0.3894   -1.2632 C   0  0  0  0  0  0  0  0  0  0  0  0
    4.1156    2.2939   -0.6014 N   0  0  0  0  0  0  0  0  0  0  0  0
    4.6837    2.4925   -1.9350 C   0  0  0  0  0  0  0  0  0  0  0  0
    5.7892    3.5287   -1.6991 C   0  0  0  0  0  0  0  0  0  0  0  0
    5.2701    4.3573   -0.5035 C   0  0  2  0  0  0  0  0  0  0  0  0
    4.3142    5.4797   -0.9782 C   0  0  0  0  0  0  0  0  0  0  0  0
    5.2252    6.7372   -1.1229 C   0  0  0  0  0  0  0  0  0  0  0  0
    6.5664    6.3852   -0.5953 N   0  0  0  0  0  0  0  0  0  0  0  0
    6.3684    5.1703    0.2060 C   0  0  0  0  0  0  0  0  0  0  0  0
    4.5987    3.2825    0.3617 C   0  0  0  0  0  0  0  0  0  0  0  0
    1.4939   -0.2823    2.7049 C   0  0  0  0  0  0  0  0  0  0  0  0
    2.0041    0.6050    3.6023 F   0  0  0  0  0  0  0  0  0  0  0  0
    1.8579   -1.5167    3.1217 F   0  0  0  0  0  0  0  0  0  0  0  0
    0.1466   -0.2069    2.7997 F   0  0  0  0  0  0  0  0  0  0  0  0
    1.6279   -2.6230   -1.6706 H   0  0  0  0  0  0  0  0  0  0  0  0
    1.6964   -1.3688   -2.9304 H   0  0  0  0  0  0  0  0  0  0  0  0
    0.2459   -1.5602   -1.9178 H   0  0  0  0  0  0  0  0  0  0  0  0
    3.1869    1.6759    1.8654 H   0  0  0  0  0  0  0  0  0  0  0  0
    3.0332    0.5066   -2.3061 H   0  0  0  0  0  0  0  0  0  0  0  0
    3.9205    2.8615   -2.6355 H   0  0  0  0  0  0  0  0  0  0  0  0
    5.0786    1.5535   -2.3385 H   0  0  0  0  0  0  0  0  0  0  0  0
    5.9831    4.1323   -2.5900 H   0  0  0  0  0  0  0  0  0  0  0  0
    6.7200    3.0191   -1.4245 H   0  0  0  0  0  0  0  0  0  0  0  0
    3.5377    5.6569   -0.2277 H   0  0  0  0  0  0  0  0  0  0  0  0
    3.8038    5.2231   -1.9113 H   0  0  0  0  0  0  0  0  0  0  0  0
    5.3105    7.0778   -2.1588 H   0  0  0  0  0  0  0  0  0  0  0  0
    4.8141    7.5705   -0.5436 H   0  0  0  0  0  0  0  0  0  0  0  0
    7.1775    6.1573   -1.3759 H   0  0  0  0  0  0  0  0  0  0  0  0
    7.3080    4.6209    0.3204 H   0  0  0  0  0  0  0  0  0  0  0  0
    6.0272    5.4556    1.2107 H   0  0  0  0  0  0  0  0  0  0  0  0
    3.7739    3.6927    0.9539 H   0  0  0  0  0  0  0  0  0  0  0  0
    5.3192    2.8297    1.0609 H   0  0  0  0  0  0  0  0  0  0  0  0
  1  2  1  0
  1 21  1  0
  1 22  1  0
  1 23  1  0
  2  3  2  0
  2  7  1  0
  3  4  1  0
  4  5  2  0
  4 17  1  0
  5  6  1  0
  5 24  1  0
  6  7  2  0
  6  8  1  0
  7 25  1  0
  8  9  1  0
  8 16  1  0
  9 10  1  0
  9 26  1  0
  9 27  1  0
 11 10  1  6
 10 28  1  0
 10 29  1  0
 11 12  1  0
 11 15  1  0
 11 16  1  0
 12 13  1  0
 12 30  1  0
 12 31  1  0
 13 14  1  0
 13 32  1  0
 13 33  1  0
 14 15  1  0
 14 34  1  0
 15 35  1  0
 15 36  1  0
 16 37  1  0
 16 38  1  0
 17 18  1  0
 17 19  1  0
 17 20  1  0
M  END
>  <group_name>  (1) 
JNS

>  <molecule_index>  (1) 
02002

>  <conformer_index>  (1) 
05

>  <method>  (1) 
b3lyp-d3bj

>  <basis>  (1) 
dzvp

>  <program>  (1) 
psi4

>  <initial_energy>  (1) 
-632687.7334055636 kilocalorie / mole

>  <final_energy>  (1) 
-632737.2581359812 kilocalorie / mole

$$$$
