JNS-02392-02
     RDKit          3D

 48 51  0  0  0  0  0  0  0  0999 V2000
   -0.4801    0.8170   -3.4120 C   0  0  0  0  0  0  0  0  0  0  0  0
   -0.6533    0.2220   -2.0396 C   0  0  0  0  0  0  0  0  0  0  0  0
   -1.8367    0.3747   -1.3052 C   0  0  0  0  0  0  0  0  0  0  0  0
   -1.9017   -0.2233   -0.0400 C   0  0  0  0  0  0  0  0  0  0  0  0
   -3.1307   -0.1313    0.8250 C   0  0  0  0  0  0  0  0  0  0  0  0
   -0.8668   -0.9120    0.4628 N   0  0  0  0  0  0  0  0  0  0  0  0
    0.2290   -0.9870   -0.3161 C   0  0  0  0  0  0  0  0  0  0  0  0
    0.3877   -0.4644   -1.5500 N   0  0  0  0  0  0  0  0  0  0  0  0
    1.3078   -1.6487    0.1941 N   0  0  0  0  0  0  0  0  0  0  0  0
    1.3354   -2.6622    1.2594 C   0  0  0  0  0  0  0  0  0  0  0  0
    2.6312   -3.2352    0.6141 C   0  0  2  0  0  0  0  0  0  0  0  0
    3.9542   -2.9352    1.3128 C   0  0  0  0  0  0  0  0  0  0  0  0
    5.1066   -2.9827    0.3036 C   0  0  0  0  0  0  0  0  0  0  0  0
    4.8028   -2.1688   -0.8911 N   0  0  0  0  0  0  0  0  0  0  0  0
    3.5890   -1.3499   -0.8770 C   0  0  0  0  0  0  0  0  0  0  0  0
    2.3942   -2.2569   -0.5766 C   0  0  2  0  0  0  0  0  0  0  0  0
    5.6727   -2.2637   -1.9315 C   0  0  0  0  0  0  0  0  0  0  0  0
    6.6355   -3.0337   -1.9325 O   0  0  0  0  0  0  0  0  0  0  0  0
    5.4043   -1.4207   -3.1592 C   0  0  0  0  0  0  0  0  0  0  0  0
    4.9245   -2.0770   -4.3004 C   0  0  0  0  0  0  0  0  0  0  0  0
    4.7120   -1.3565   -5.4718 C   0  0  0  0  0  0  0  0  0  0  0  0
    5.0001    0.0125   -5.4714 C   0  0  0  0  0  0  0  0  0  0  0  0
    5.4807    0.6515   -4.4024 N   0  0  0  0  0  0  0  0  0  0  0  0
    5.6797   -0.0510   -3.2827 C   0  0  0  0  0  0  0  0  0  0  0  0
    6.1996    0.7886   -2.1212 C   0  0  0  0  0  0  0  0  0  0  0  0
    6.8479    0.0423   -1.1956 F   0  0  0  0  0  0  0  0  0  0  0  0
    7.0455    1.7464   -2.5313 F   0  0  0  0  0  0  0  0  0  0  0  0
    5.1691    1.4055   -1.4770 F   0  0  0  0  0  0  0  0  0  0  0  0
   -1.3792    1.3412   -3.7445 H   0  0  0  0  0  0  0  0  0  0  0  0
    0.3597    1.5194   -3.4097 H   0  0  0  0  0  0  0  0  0  0  0  0
   -0.2398    0.0296   -4.1335 H   0  0  0  0  0  0  0  0  0  0  0  0
   -2.6765    0.9331   -1.7053 H   0  0  0  0  0  0  0  0  0  0  0  0
   -2.8830    0.3553    1.7738 H   0  0  0  0  0  0  0  0  0  0  0  0
   -3.4951   -1.1355    1.0639 H   0  0  0  0  0  0  0  0  0  0  0  0
   -3.9307    0.4303    0.3367 H   0  0  0  0  0  0  0  0  0  0  0  0
    0.4707   -3.3348    1.2339 H   0  0  0  0  0  0  0  0  0  0  0  0
    1.4340   -2.2466    2.2675 H   0  0  0  0  0  0  0  0  0  0  0  0
    2.5674   -4.2904    0.3377 H   0  0  0  0  0  0  0  0  0  0  0  0
    3.9077   -1.9491    1.7878 H   0  0  0  0  0  0  0  0  0  0  0  0
    4.1558   -3.6578    2.1102 H   0  0  0  0  0  0  0  0  0  0  0  0
    6.0396   -2.6244    0.7517 H   0  0  0  0  0  0  0  0  0  0  0  0
    5.2891   -4.0112   -0.0229 H   0  0  0  0  0  0  0  0  0  0  0  0
    3.6629   -0.5682   -0.1144 H   0  0  0  0  0  0  0  0  0  0  0  0
    3.4580   -0.8528   -1.8352 H   0  0  0  0  0  0  0  0  0  0  0  0
    2.0448   -2.7425   -1.4954 H   0  0  0  0  0  0  0  0  0  0  0  0
    4.7282   -3.1446   -4.2566 H   0  0  0  0  0  0  0  0  0  0  0  0
    4.3359   -1.8390   -6.3691 H   0  0  0  0  0  0  0  0  0  0  0  0
    4.8448    0.6167   -6.3632 H   0  0  0  0  0  0  0  0  0  0  0  0
  1  2  1  0
  1 29  1  0
  1 30  1  0
  1 31  1  0
  2  3  2  0
  2  8  1  0
  3  4  1  0
  3 32  1  0
  4  5  1  0
  4  6  2  0
  5 33  1  0
  5 34  1  0
  5 35  1  0
  6  7  1  0
  7  8  2  0
  7  9  1  0
  9 10  1  0
  9 16  1  0
 10 11  1  0
 10 36  1  0
 10 37  1  0
 11 12  1  0
 11 16  1  0
 11 38  1  6
 12 13  1  0
 12 39  1  0
 12 40  1  0
 13 14  1  0
 13 41  1  0
 13 42  1  0
 14 15  1  0
 14 17  1  0
 15 16  1  0
 15 43  1  0
 15 44  1  0
 16 45  1  6
 17 18  2  0
 17 19  1  0
 19 20  2  0
 19 24  1  0
 20 21  1  0
 20 46  1  0
 21 22  2  0
 21 47  1  0
 22 23  1  0
 22 48  1  0
 23 24  2  0
 24 25  1  0
 25 26  1  0
 25 27  1  0
 25 28  1  0
M  END
>  <group_name>  (1) 
JNS

>  <molecule_index>  (1) 
02392

>  <conformer_index>  (1) 
02

>  <method>  (1) 
b3lyp-d3bj

>  <basis>  (1) 
dzvp

>  <program>  (1) 
psi4

>  <initial_energy>  (1) 
-868956.72628563 kilocalorie / mole

>  <final_energy>  (1) 
-869018.5946429777 kilocalorie / mole

$$$$
