JNS-01595-00
     RDKit          3D

 39 42  0  0  0  0  0  0  0  0999 V2000
   -0.6190   -0.7471    1.1633 C   0  0  0  0  0  0  0  0  0  0  0  0
   -0.0803   -0.1718   -0.1613 C   0  0  0  0  0  0  0  0  0  0  0  0
   -0.4946   -1.0481   -1.3569 C   0  0  0  0  0  0  0  0  0  0  0  0
    1.4166   -0.0471   -0.1042 C   0  0  0  0  0  0  0  0  0  0  0  0
    2.2433   -1.0752   -0.1330 N   0  0  0  0  0  0  0  0  0  0  0  0
    3.5164   -0.5360   -0.0849 C   0  0  0  0  0  0  0  0  0  0  0  0
    3.4424    0.8812   -0.0268 C   0  0  0  0  0  0  0  0  0  0  0  0
    4.4541    1.7320    0.0171 N   0  0  0  0  0  0  0  0  0  0  0  0
    5.6618    1.1473    0.0074 C   0  0  0  0  0  0  0  0  0  0  0  0
    5.8791   -0.2395   -0.0418 C   0  0  0  0  0  0  0  0  0  0  0  0
    4.7862   -1.1133   -0.0895 C   0  0  0  0  0  0  0  0  0  0  0  0
    6.8217    2.1205    0.0474 C   0  0  0  0  0  0  0  0  0  0  0  0
    6.8002    2.8862    1.1632 F   0  0  0  0  0  0  0  0  0  0  0  0
    8.0178    1.4796    0.0247 F   0  0  0  0  0  0  0  0  0  0  0  0
    6.8026    2.9647   -1.0132 F   0  0  0  0  0  0  0  0  0  0  0  0
    2.0824    1.1788   -0.0302 N   0  0  0  0  0  0  0  0  0  0  0  0
    1.5324    2.4938    0.0295 C   0  0  0  0  0  0  0  0  0  0  0  0
    0.6708    2.8418    1.0590 C   0  0  0  0  0  0  0  0  0  0  0  0
    0.1488    4.1456    1.0621 C   0  0  0  0  0  0  0  0  0  0  0  0
    0.5264    5.0725    0.0561 C   0  0  0  0  0  0  0  0  0  0  0  0
   -0.1360    6.2355    0.3518 N   0  0  0  0  0  0  0  0  0  0  0  0
   -0.9077    6.1296    1.4727 N   0  0  0  0  0  0  0  0  0  0  0  0
   -0.7421    4.8926    1.8960 C   0  0  0  0  0  0  0  0  0  0  0  0
   -1.6201    4.2536    3.4410 Br  0  0  0  0  0  0  0  0  0  0  0  0
    1.4176    4.7216   -0.9733 C   0  0  0  0  0  0  0  0  0  0  0  0
    1.9063    3.4255   -0.9737 C   0  0  0  0  0  0  0  0  0  0  0  0
   -0.3474   -0.1202    2.0186 H   0  0  0  0  0  0  0  0  0  0  0  0
   -1.7109   -0.8158    1.1267 H   0  0  0  0  0  0  0  0  0  0  0  0
   -0.2112   -1.7473    1.3346 H   0  0  0  0  0  0  0  0  0  0  0  0
   -0.4993    0.8289   -0.3019 H   0  0  0  0  0  0  0  0  0  0  0  0
   -0.1420   -0.6218   -2.3013 H   0  0  0  0  0  0  0  0  0  0  0  0
   -0.0736   -2.0520   -1.2596 H   0  0  0  0  0  0  0  0  0  0  0  0
   -1.5856   -1.1263   -1.4014 H   0  0  0  0  0  0  0  0  0  0  0  0
    6.8927   -0.6228   -0.0454 H   0  0  0  0  0  0  0  0  0  0  0  0
    4.9198   -2.1903   -0.1305 H   0  0  0  0  0  0  0  0  0  0  0  0
    0.4156    2.1348    1.8415 H   0  0  0  0  0  0  0  0  0  0  0  0
   -0.1064    7.1224   -0.1318 H   0  0  0  0  0  0  0  0  0  0  0  0
    1.7166    5.4307   -1.7396 H   0  0  0  0  0  0  0  0  0  0  0  0
    2.6010    3.1081   -1.7439 H   0  0  0  0  0  0  0  0  0  0  0  0
  1  2  1  0
  1 27  1  0
  1 28  1  0
  1 29  1  0
  2  3  1  0
  2  4  1  0
  2 30  1  0
  3 31  1  0
  3 32  1  0
  3 33  1  0
  4  5  2  0
  4 16  1  0
  5  6  1  0
  6  7  2  0
  6 11  1  0
  7  8  1  0
  7 16  1  0
  8  9  2  0
  9 10  1  0
  9 12  1  0
 10 11  2  0
 10 34  1  0
 11 35  1  0
 12 13  1  0
 12 14  1  0
 12 15  1  0
 16 17  1  0
 17 18  2  0
 17 26  1  0
 18 19  1  0
 18 36  1  0
 19 20  2  0
 19 23  1  0
 20 21  1  0
 20 25  1  0
 21 22  1  0
 21 37  1  0
 22 23  2  0
 23 24  1  0
 25 26  2  0
 25 38  1  0
 26 39  1  0
M  END
>  <group_name>  (1) 
JNS

>  <molecule_index>  (1) 
01595

>  <conformer_index>  (1) 
00

>  <method>  (1) 
b3lyp-d3bj

>  <basis>  (1) 
dzvp

>  <program>  (1) 
psi4

>  <initial_energy>  (1) 
-2386335.749087081 kilocalorie / mole

>  <final_energy>  (1) 
-2386340.3831983847 kilocalorie / mole

$$$$
