JNS-01558-03
     RDKit          3D

 42 46  0  0  0  0  0  0  0  0999 V2000
   -0.1029    1.4341    1.5852 F   0  0  0  0  0  0  0  0  0  0  0  0
    0.1877    0.9875    0.3476 C   0  0  0  0  0  0  0  0  0  0  0  0
   -0.1464    1.9718   -0.5282 F   0  0  0  0  0  0  0  0  0  0  0  0
   -0.6394   -0.0596    0.0923 F   0  0  0  0  0  0  0  0  0  0  0  0
    1.6456    0.5875    0.2047 C   0  0  0  0  0  0  0  0  0  0  0  0
    2.1560   -0.0479    1.2414 N   0  0  0  0  0  0  0  0  0  0  0  0
    3.4449   -0.4344    1.1038 C   0  0  0  0  0  0  0  0  0  0  0  0
    4.2845   -1.1338    1.9992 C   0  0  0  0  0  0  0  0  0  0  0  0
    5.4740   -1.2471    1.3287 N   0  0  0  0  0  0  0  0  0  0  0  0
    5.4783   -0.7128    0.0705 N   0  0  0  0  0  0  0  0  0  0  0  0
    4.2377   -0.2142   -0.0710 C   0  0  0  0  0  0  0  0  0  0  0  0
    3.6509    0.4676   -1.1646 C   0  0  0  0  0  0  0  0  0  0  0  0
    2.3404    0.8695   -1.0120 C   0  0  0  0  0  0  0  0  0  0  0  0
    6.7032   -1.7861    1.8194 C   0  0  0  0  0  0  0  0  0  0  0  0
    7.1771   -1.4085    3.0792 C   0  0  0  0  0  0  0  0  0  0  0  0
    8.3744   -1.9517    3.5479 C   0  0  0  0  0  0  0  0  0  0  0  0
    9.0968   -2.8540    2.7588 C   0  0  0  0  0  0  0  0  0  0  0  0
    8.6215   -3.2072    1.4911 C   0  0  0  0  0  0  0  0  0  0  0  0
    7.4215   -2.6739    1.0149 C   0  0  0  0  0  0  0  0  0  0  0  0
    3.9647   -1.7074    3.3065 C   0  0  0  0  0  0  0  0  0  0  0  0
    3.0793   -1.0153    4.1529 C   0  0  0  0  0  0  0  0  0  0  0  0
    2.7133   -1.5256    5.4030 C   0  0  0  0  0  0  0  0  0  0  0  0
    3.2479   -2.7514    5.7882 C   0  0  0  0  0  0  0  0  0  0  0  0
    3.0454   -3.4751    6.9699 N   0  0  0  0  0  0  0  0  0  0  0  0
    3.7380   -4.6811    6.9811 C   0  0  0  0  0  0  0  0  0  0  0  0
    3.7250   -5.4970    7.8862 O   0  0  0  0  0  0  0  0  0  0  0  0
    4.4970   -4.7567    5.6466 C   0  0  0  0  0  0  0  0  0  0  0  0
    4.1216   -3.4724    4.9501 C   0  0  0  0  0  0  0  0  0  0  0  0
    4.4757   -2.9616    3.7154 C   0  0  0  0  0  0  0  0  0  0  0  0
    4.2102    0.6653   -2.0744 H   0  0  0  0  0  0  0  0  0  0  0  0
    1.8276    1.4037   -1.8039 H   0  0  0  0  0  0  0  0  0  0  0  0
    6.6149   -0.7028    3.6813 H   0  0  0  0  0  0  0  0  0  0  0  0
    8.7467   -1.6617    4.5264 H   0  0  0  0  0  0  0  0  0  0  0  0
   10.0291   -3.2735    3.1270 H   0  0  0  0  0  0  0  0  0  0  0  0
    9.1835   -3.9005    0.8716 H   0  0  0  0  0  0  0  0  0  0  0  0
    7.0386   -2.9309    0.0330 H   0  0  0  0  0  0  0  0  0  0  0  0
    2.6650   -0.0694    3.8221 H   0  0  0  0  0  0  0  0  0  0  0  0
    2.0286   -0.9762    6.0430 H   0  0  0  0  0  0  0  0  0  0  0  0
    2.4480   -3.1946    7.7381 H   0  0  0  0  0  0  0  0  0  0  0  0
    4.1855   -5.6565    5.1068 H   0  0  0  0  0  0  0  0  0  0  0  0
    5.5693   -4.8503    5.8454 H   0  0  0  0  0  0  0  0  0  0  0  0
    5.1311   -3.5272    3.0609 H   0  0  0  0  0  0  0  0  0  0  0  0
  1  2  1  0
  2  3  1  0
  2  4  1  0
  2  5  1  0
  5  6  2  0
  5 13  1  0
  6  7  1  0
  7  8  2  0
  7 11  1  0
  8  9  1  0
  8 20  1  0
  9 10  1  0
  9 14  1  0
 10 11  2  0
 11 12  1  0
 12 13  2  0
 12 30  1  0
 13 31  1  0
 14 15  2  0
 14 19  1  0
 15 16  1  0
 15 32  1  0
 16 17  2  0
 16 33  1  0
 17 18  1  0
 17 34  1  0
 18 19  2  0
 18 35  1  0
 19 36  1  0
 20 21  2  0
 20 29  1  0
 21 22  1  0
 21 37  1  0
 22 23  2  0
 22 38  1  0
 23 24  1  0
 23 28  1  0
 24 25  1  0
 24 39  1  0
 25 26  2  0
 25 27  1  0
 27 28  1  0
 27 40  1  0
 27 41  1  0
 28 29  2  0
 29 42  1  0
M  END
>  <group_name>  (1) 
JNS

>  <molecule_index>  (1) 
01558

>  <conformer_index>  (1) 
03

>  <method>  (1) 
b3lyp-d3bj

>  <basis>  (1) 
dzvp

>  <program>  (1) 
psi4

>  <initial_energy>  (1) 
-879783.36617686 kilocalorie / mole

>  <final_energy>  (1) 
-879837.6503243056 kilocalorie / mole

$$$$
