JNS-01002-00
     RDKit          3D

 37 38  0  0  0  0  0  0  0  0999 V2000
   -2.9156   -2.2213   -1.3188 C   0  0  0  0  0  0  0  0  0  0  0  0
   -1.9350   -1.3604   -0.5636 C   0  0  0  0  0  0  0  0  0  0  0  0
   -2.1535   -0.0324   -0.6118 N   0  0  0  0  0  0  0  0  0  0  0  0
   -1.2960    0.7427    0.0546 C   0  0  0  0  0  0  0  0  0  0  0  0
   -0.2008    0.2992    0.7866 C   0  0  0  0  0  0  0  0  0  0  0  0
    0.0350   -1.0911    0.8401 C   0  0  0  0  0  0  0  0  0  0  0  0
    1.0671   -1.6419    1.5676 N   0  0  0  0  0  0  0  0  0  0  0  0
    2.2354   -0.8770    1.9960 C   0  0  0  0  0  0  0  0  0  0  0  0
    3.1422   -0.3782    0.8579 C   0  0  2  0  0  0  0  0  0  0  0  0
    3.5685   -1.5329   -0.0725 C   0  0  0  0  0  0  0  0  0  0  0  0
    4.8351   -1.1545   -0.8470 C   0  0  0  0  0  0  0  0  0  0  0  0
    6.0150   -0.9251    0.1331 C   0  0  0  0  0  0  0  0  0  0  0  0
    5.5996   -0.4922    1.4813 N   0  0  0  0  0  0  0  0  0  0  0  0
    4.3961    0.3415    1.4359 C   0  0  0  0  0  0  0  0  0  0  0  0
   -0.8667   -1.9179    0.1387 C   0  0  0  0  0  0  0  0  0  0  0  0
   -1.5888    2.2304   -0.0501 C   0  0  0  0  0  0  0  0  0  0  0  0
   -0.7092    2.9722    0.6767 F   0  0  0  0  0  0  0  0  0  0  0  0
   -2.8266    2.5325    0.3989 F   0  0  0  0  0  0  0  0  0  0  0  0
   -1.5060    2.6648   -1.3293 F   0  0  0  0  0  0  0  0  0  0  0  0
   -2.6630   -3.2827   -1.2536 H   0  0  0  0  0  0  0  0  0  0  0  0
   -2.9385   -1.9262   -2.3723 H   0  0  0  0  0  0  0  0  0  0  0  0
   -3.9247   -2.0741   -0.9210 H   0  0  0  0  0  0  0  0  0  0  0  0
    0.4369    1.0086    1.2965 H   0  0  0  0  0  0  0  0  0  0  0  0
    1.2459   -2.6171    1.3649 H   0  0  0  0  0  0  0  0  0  0  0  0
    2.8108   -1.5283    2.6646 H   0  0  0  0  0  0  0  0  0  0  0  0
    1.8996   -0.0345    2.6099 H   0  0  0  0  0  0  0  0  0  0  0  0
    2.5746    0.3450    0.2601 H   0  0  0  0  0  0  0  0  0  0  0  0
    2.7535   -1.7855   -0.7580 H   0  0  0  0  0  0  0  0  0  0  0  0
    3.7682   -2.4378    0.5212 H   0  0  0  0  0  0  0  0  0  0  0  0
    5.0953   -1.9295   -1.5760 H   0  0  0  0  0  0  0  0  0  0  0  0
    4.6374   -0.2421   -1.4226 H   0  0  0  0  0  0  0  0  0  0  0  0
    6.6979   -0.1719   -0.2784 H   0  0  0  0  0  0  0  0  0  0  0  0
    6.5962   -1.8459    0.2482 H   0  0  0  0  0  0  0  0  0  0  0  0
    5.4173   -1.3109    2.0573 H   0  0  0  0  0  0  0  0  0  0  0  0
    4.6322    1.2225    0.8293 H   0  0  0  0  0  0  0  0  0  0  0  0
    4.1915    0.7137    2.4469 H   0  0  0  0  0  0  0  0  0  0  0  0
   -0.7308   -2.9970    0.1483 H   0  0  0  0  0  0  0  0  0  0  0  0
  1  2  1  0
  1 20  1  0
  1 21  1  0
  1 22  1  0
  2  3  2  0
  2 15  1  0
  3  4  1  0
  4  5  2  0
  4 16  1  0
  5  6  1  0
  5 23  1  0
  6  7  1  0
  6 15  2  0
  7  8  1  0
  7 24  1  0
  8  9  1  0
  8 25  1  0
  8 26  1  0
  9 10  1  0
  9 14  1  0
  9 27  1  6
 10 11  1  0
 10 28  1  0
 10 29  1  0
 11 12  1  0
 11 30  1  0
 11 31  1  0
 12 13  1  0
 12 32  1  0
 12 33  1  0
 13 14  1  0
 13 34  1  0
 14 35  1  0
 14 36  1  0
 15 37  1  0
 16 17  1  0
 16 18  1  0
 16 19  1  0
M  END
>  <group_name>  (1) 
JNS

>  <molecule_index>  (1) 
01002

>  <conformer_index>  (1) 
00

>  <method>  (1) 
b3lyp-d3bj

>  <basis>  (1) 
dzvp

>  <program>  (1) 
psi4

>  <initial_energy>  (1) 
-608774.6622689748 kilocalorie / mole

>  <final_energy>  (1) 
-608820.7988453931 kilocalorie / mole

$$$$
