JNS-01358-04
     RDKit          3D

 41 45  0  0  0  0  0  0  0  0999 V2000
   -1.9807   -3.6632    0.2375 F   0  0  0  0  0  0  0  0  0  0  0  0
   -1.6754   -2.3497    0.2765 C   0  0  0  0  0  0  0  0  0  0  0  0
   -2.6916   -1.5236    0.4049 N   0  0  0  0  0  0  0  0  0  0  0  0
   -2.3939   -0.2130    0.4393 C   0  0  0  0  0  0  0  0  0  0  0  0
   -1.0967    0.2872    0.3640 C   0  0  0  0  0  0  0  0  0  0  0  0
   -0.0320   -0.6243    0.2386 C   0  0  0  0  0  0  0  0  0  0  0  0
   -0.3322   -1.9901    0.1823 C   0  0  0  0  0  0  0  0  0  0  0  0
    1.3752   -0.2146    0.1135 C   0  0  0  0  0  0  0  0  0  0  0  0
    2.2636   -0.9158   -0.5729 N   0  0  0  0  0  0  0  0  0  0  0  0
    3.4402   -0.1989   -0.4944 C   0  0  0  0  0  0  0  0  0  0  0  0
    3.2443    0.9759    0.2787 C   0  0  0  0  0  0  0  0  0  0  0  0
    4.1492    1.8965    0.5720 N   0  0  0  0  0  0  0  0  0  0  0  0
    5.3613    1.6538    0.0548 C   0  0  0  0  0  0  0  0  0  0  0  0
    5.6908    0.5353   -0.7322 C   0  0  0  0  0  0  0  0  0  0  0  0
    4.7146   -0.4225   -1.0208 C   0  0  0  0  0  0  0  0  0  0  0  0
    6.4035    2.7024    0.3924 C   0  0  0  0  0  0  0  0  0  0  0  0
    7.5867    2.4487   -0.2204 F   0  0  0  0  0  0  0  0  0  0  0  0
    6.0104    3.9389    0.0093 F   0  0  0  0  0  0  0  0  0  0  0  0
    6.6451    2.7541    1.7231 F   0  0  0  0  0  0  0  0  0  0  0  0
    1.9090    0.9496    0.6668 N   0  0  0  0  0  0  0  0  0  0  0  0
    1.3140    1.8560    1.5984 C   0  0  0  0  0  0  0  0  0  0  0  0
    1.2728    3.2255    1.2894 C   0  0  0  0  0  0  0  0  0  0  0  0
    0.6908    4.0922    2.1994 C   0  0  0  0  0  0  0  0  0  0  0  0
    0.1516    3.5932    3.4022 C   0  0  0  0  0  0  0  0  0  0  0  0
   -0.3801    4.6556    4.1414 N   0  0  0  0  0  0  0  0  0  0  0  0
   -0.2279    5.8811    3.4977 C   0  0  0  0  0  0  0  0  0  0  0  0
   -0.6084    6.9556    3.9247 O   0  0  0  0  0  0  0  0  0  0  0  0
    0.4990    5.5875    2.1754 C   0  0  0  0  0  0  0  0  0  0  0  0
    0.1967    2.2385    3.7210 C   0  0  0  0  0  0  0  0  0  0  0  0
    0.8001    1.3706    2.8030 C   0  0  0  0  0  0  0  0  0  0  0  0
   -3.2397    0.4648    0.5314 H   0  0  0  0  0  0  0  0  0  0  0  0
   -0.9307    1.3569    0.3899 H   0  0  0  0  0  0  0  0  0  0  0  0
    0.4456   -2.7358    0.0667 H   0  0  0  0  0  0  0  0  0  0  0  0
    6.7006    0.4261   -1.1096 H   0  0  0  0  0  0  0  0  0  0  0  0
    4.9343   -1.2986   -1.6235 H   0  0  0  0  0  0  0  0  0  0  0  0
    1.6976    3.5834    0.3566 H   0  0  0  0  0  0  0  0  0  0  0  0
   -0.8276    4.5795    5.0467 H   0  0  0  0  0  0  0  0  0  0  0  0
    1.4414    6.1437    2.1508 H   0  0  0  0  0  0  0  0  0  0  0  0
   -0.1114    5.9421    1.3392 H   0  0  0  0  0  0  0  0  0  0  0  0
   -0.2102    1.8579    4.6533 H   0  0  0  0  0  0  0  0  0  0  0  0
    0.8630    0.3094    3.0220 H   0  0  0  0  0  0  0  0  0  0  0  0
  1  2  1  0
  2  3  2  0
  2  7  1  0
  3  4  1  0
  4  5  2  0
  4 31  1  0
  5  6  1  0
  5 32  1  0
  6  7  2  0
  6  8  1  0
  7 33  1  0
  8  9  2  0
  8 20  1  0
  9 10  1  0
 10 11  2  0
 10 15  1  0
 11 12  1  0
 11 20  1  0
 12 13  2  0
 13 14  1  0
 13 16  1  0
 14 15  2  0
 14 34  1  0
 15 35  1  0
 16 17  1  0
 16 18  1  0
 16 19  1  0
 20 21  1  0
 21 22  2  0
 21 30  1  0
 22 23  1  0
 22 36  1  0
 23 24  2  0
 23 28  1  0
 24 25  1  0
 24 29  1  0
 25 26  1  0
 25 37  1  0
 26 27  2  0
 26 28  1  0
 28 38  1  0
 28 39  1  0
 29 30  2  0
 29 40  1  0
 30 41  1  0
M  END
>  <group_name>  (1) 
JNS

>  <molecule_index>  (1) 
01358

>  <conformer_index>  (1) 
04

>  <method>  (1) 
b3lyp-d3bj

>  <basis>  (1) 
dzvp

>  <program>  (1) 
psi4

>  <initial_energy>  (1) 
-952163.1023626999 kilocalorie / mole

>  <final_energy>  (1) 
-952214.6809468537 kilocalorie / mole

$$$$
