JNS-01564-08
     RDKit          3D

 45 49  0  0  0  0  0  0  0  0999 V2000
   -2.4766    0.2786   -2.7512 C   0  0  0  0  0  0  0  0  0  0  0  0
   -1.8334    0.1430   -1.3933 C   0  0  0  0  0  0  0  0  0  0  0  0
   -2.6010    0.0080   -0.2340 C   0  0  0  0  0  0  0  0  0  0  0  0
   -3.9992   -0.0181   -0.1182 N   0  0  0  0  0  0  0  0  0  0  0  0
   -4.4201   -0.1908    1.1949 C   0  0  0  0  0  0  0  0  0  0  0  0
   -5.5794   -0.2475    1.5672 O   0  0  0  0  0  0  0  0  0  0  0  0
   -3.1440   -0.2907    2.0475 C   0  0  0  0  0  0  0  0  0  0  0  0
   -2.0292   -0.1450    1.0404 C   0  0  0  0  0  0  0  0  0  0  0  0
   -0.6522   -0.1548    1.1845 C   0  0  0  0  0  0  0  0  0  0  0  0
    0.1625    0.0046    0.0428 C   0  0  0  0  0  0  0  0  0  0  0  0
   -0.4440    0.1367   -1.2215 C   0  0  0  0  0  0  0  0  0  0  0  0
    1.6237   -0.0255    0.1150 C   0  0  0  0  0  0  0  0  0  0  0  0
    2.5441   -0.6157   -0.7847 C   0  0  0  0  0  0  0  0  0  0  0  0
    2.3321   -1.2684   -1.9486 N   0  0  0  0  0  0  0  0  0  0  0  0
    3.4200   -1.7045   -2.5570 C   0  0  0  0  0  0  0  0  0  0  0  0
    4.7528   -1.5434   -2.0738 C   0  0  0  0  0  0  0  0  0  0  0  0
    4.9758   -0.8813   -0.8825 C   0  0  0  0  0  0  0  0  0  0  0  0
    3.8356   -0.3913   -0.2049 C   0  0  0  0  0  0  0  0  0  0  0  0
    3.7407    0.2967    0.9486 N   0  0  0  0  0  0  0  0  0  0  0  0
    2.4046    0.5033    1.1030 N   0  0  0  0  0  0  0  0  0  0  0  0
    1.9782    1.3102    2.2467 C   0  0  0  0  0  0  0  0  0  0  0  0
    3.0141    2.3018    2.8230 C   0  0  0  0  0  0  0  0  0  0  0  0
    1.8539    3.3178    3.0181 C   0  0  0  0  0  0  0  0  0  0  0  0
    1.0146    2.5005    1.9964 C   0  0  0  0  0  0  0  0  0  0  0  0
    3.1620   -2.4436   -3.8574 C   0  0  0  0  0  0  0  0  0  0  0  0
    2.5305   -3.6240   -3.6467 F   0  0  0  0  0  0  0  0  0  0  0  0
    2.3886   -1.7250   -4.7032 F   0  0  0  0  0  0  0  0  0  0  0  0
    4.3180   -2.7247   -4.5137 F   0  0  0  0  0  0  0  0  0  0  0  0
   -3.1090   -0.5875   -2.9810 H   0  0  0  0  0  0  0  0  0  0  0  0
   -3.1082    1.1736   -2.8101 H   0  0  0  0  0  0  0  0  0  0  0  0
   -1.7215    0.3518   -3.5370 H   0  0  0  0  0  0  0  0  0  0  0  0
   -4.6573    0.0632   -0.8831 H   0  0  0  0  0  0  0  0  0  0  0  0
   -3.1580    0.4964    2.8081 H   0  0  0  0  0  0  0  0  0  0  0  0
   -3.1386   -1.2513    2.5724 H   0  0  0  0  0  0  0  0  0  0  0  0
   -0.2088   -0.3127    2.1625 H   0  0  0  0  0  0  0  0  0  0  0  0
    0.1921    0.2249   -2.0960 H   0  0  0  0  0  0  0  0  0  0  0  0
    5.5793   -1.9415   -2.6510 H   0  0  0  0  0  0  0  0  0  0  0  0
    5.9764   -0.7385   -0.4848 H   0  0  0  0  0  0  0  0  0  0  0  0
    1.6006    0.6447    3.0285 H   0  0  0  0  0  0  0  0  0  0  0  0
    3.5789    1.9722    3.6970 H   0  0  0  0  0  0  0  0  0  0  0  0
    3.7128    2.6209    2.0486 H   0  0  0  0  0  0  0  0  0  0  0  0
    1.4275    3.2745    4.0243 H   0  0  0  0  0  0  0  0  0  0  0  0
    2.0606    4.3608    2.7683 H   0  0  0  0  0  0  0  0  0  0  0  0
   -0.0454    2.3425    2.2006 H   0  0  0  0  0  0  0  0  0  0  0  0
    1.1268    2.8795    0.9772 H   0  0  0  0  0  0  0  0  0  0  0  0
  1  2  1  0
  1 29  1  0
  1 30  1  0
  1 31  1  0
  2  3  2  0
  2 11  1  0
  3  4  1  0
  3  8  1  0
  4  5  1  0
  4 32  1  0
  5  6  2  0
  5  7  1  0
  7  8  1  0
  7 33  1  0
  7 34  1  0
  8  9  2  0
  9 10  1  0
  9 35  1  0
 10 11  2  0
 10 12  1  0
 11 36  1  0
 12 13  2  0
 12 20  1  0
 13 14  1  0
 13 18  1  0
 14 15  2  0
 15 16  1  0
 15 25  1  0
 16 17  2  0
 16 37  1  0
 17 18  1  0
 17 38  1  0
 18 19  2  0
 19 20  1  0
 20 21  1  0
 21 22  1  0
 21 24  1  0
 21 39  1  0
 22 23  1  0
 22 40  1  0
 22 41  1  0
 23 24  1  0
 23 42  1  0
 23 43  1  0
 24 44  1  0
 24 45  1  0
 25 26  1  0
 25 27  1  0
 25 28  1  0
M  END
>  <group_name>  (1) 
JNS

>  <molecule_index>  (1) 
01564

>  <conformer_index>  (1) 
08

>  <method>  (1) 
b3lyp-d3bj

>  <basis>  (1) 
dzvp

>  <program>  (1) 
psi4

>  <initial_energy>  (1) 
-857373.2419117553 kilocalorie / mole

>  <final_energy>  (1) 
-857426.0104766714 kilocalorie / mole

$$$$
