JNS-01594-01
     RDKit          3D

 39 42  0  0  0  0  0  0  0  0999 V2000
   -0.4048   -0.9168    1.6407 C   0  0  0  0  0  0  0  0  0  0  0  0
   -0.0848   -0.2910    0.2692 C   0  0  0  0  0  0  0  0  0  0  0  0
   -0.6372   -1.1556   -0.8784 C   0  0  0  0  0  0  0  0  0  0  0  0
    1.3993   -0.1094    0.1113 C   0  0  0  0  0  0  0  0  0  0  0  0
    2.2522   -1.1047   -0.0380 N   0  0  0  0  0  0  0  0  0  0  0  0
    3.4969   -0.5158   -0.1741 C   0  0  0  0  0  0  0  0  0  0  0  0
    3.3774    0.8979   -0.1048 C   0  0  0  0  0  0  0  0  0  0  0  0
    4.3510    1.7866   -0.2093 N   0  0  0  0  0  0  0  0  0  0  0  0
    5.5664    1.2484   -0.3928 C   0  0  0  0  0  0  0  0  0  0  0  0
    5.8277   -0.1294   -0.4736 C   0  0  0  0  0  0  0  0  0  0  0  0
    4.7739   -1.0443   -0.3632 C   0  0  0  0  0  0  0  0  0  0  0  0
    6.6824    2.2645   -0.5223 C   0  0  0  0  0  0  0  0  0  0  0  0
    7.8897    1.6672   -0.6908 F   0  0  0  0  0  0  0  0  0  0  0  0
    6.4919    3.0837   -1.5854 F   0  0  0  0  0  0  0  0  0  0  0  0
    6.7762    3.0524    0.5733 F   0  0  0  0  0  0  0  0  0  0  0  0
    2.0196    1.1416    0.0883 N   0  0  0  0  0  0  0  0  0  0  0  0
    1.4284    2.4305    0.2441 C   0  0  0  0  0  0  0  0  0  0  0  0
    1.5863    3.3813   -0.7542 C   0  0  0  0  0  0  0  0  0  0  0  0
    1.0135    4.6491   -0.5535 C   0  0  0  0  0  0  0  0  0  0  0  0
    0.2855    4.9233    0.6357 C   0  0  0  0  0  0  0  0  0  0  0  0
   -0.1501    6.2118    0.5258 N   0  0  0  0  0  0  0  0  0  0  0  0
    0.2465    6.7931   -0.6405 N   0  0  0  0  0  0  0  0  0  0  0  0
    0.9393    5.8740   -1.2947 C   0  0  0  0  0  0  0  0  0  0  0  0
    0.1422    3.9513    1.6354 C   0  0  0  0  0  0  0  0  0  0  0  0
   -0.8317    4.3625    3.2280 Br  0  0  0  0  0  0  0  0  0  0  0  0
    0.7277    2.7132    1.4443 C   0  0  0  0  0  0  0  0  0  0  0  0
   -1.4872   -1.0292    1.7593 H   0  0  0  0  0  0  0  0  0  0  0  0
   -0.0360   -0.2987    2.4656 H   0  0  0  0  0  0  0  0  0  0  0  0
    0.0606   -1.9029    1.7242 H   0  0  0  0  0  0  0  0  0  0  0  0
   -0.5557    0.6952    0.2170 H   0  0  0  0  0  0  0  0  0  0  0  0
   -0.1716   -2.1443   -0.8700 H   0  0  0  0  0  0  0  0  0  0  0  0
   -1.7198   -1.2748   -0.7678 H   0  0  0  0  0  0  0  0  0  0  0  0
   -0.4401   -0.6948   -1.8513 H   0  0  0  0  0  0  0  0  0  0  0  0
    6.8441   -0.4736   -0.6238 H   0  0  0  0  0  0  0  0  0  0  0  0
    4.9412   -2.1156   -0.4242 H   0  0  0  0  0  0  0  0  0  0  0  0
    2.1475    3.1455   -1.6521 H   0  0  0  0  0  0  0  0  0  0  0  0
   -0.6851    6.7475    1.1962 H   0  0  0  0  0  0  0  0  0  0  0  0
    1.3645    6.1057   -2.2632 H   0  0  0  0  0  0  0  0  0  0  0  0
    0.6628    1.9537    2.2152 H   0  0  0  0  0  0  0  0  0  0  0  0
  1  2  1  0
  1 27  1  0
  1 28  1  0
  1 29  1  0
  2  3  1  0
  2  4  1  0
  2 30  1  0
  3 31  1  0
  3 32  1  0
  3 33  1  0
  4  5  2  0
  4 16  1  0
  5  6  1  0
  6  7  2  0
  6 11  1  0
  7  8  1  0
  7 16  1  0
  8  9  2  0
  9 10  1  0
  9 12  1  0
 10 11  2  0
 10 34  1  0
 11 35  1  0
 12 13  1  0
 12 14  1  0
 12 15  1  0
 16 17  1  0
 17 18  2  0
 17 26  1  0
 18 19  1  0
 18 36  1  0
 19 20  2  0
 19 23  1  0
 20 21  1  0
 20 24  1  0
 21 22  1  0
 21 37  1  0
 22 23  2  0
 23 38  1  0
 24 25  1  0
 24 26  2  0
 26 39  1  0
M  END
>  <group_name>  (1) 
JNS

>  <molecule_index>  (1) 
01594

>  <conformer_index>  (1) 
01

>  <method>  (1) 
b3lyp-d3bj

>  <basis>  (1) 
dzvp

>  <program>  (1) 
psi4

>  <initial_energy>  (1) 
-2386302.007949606 kilocalorie / mole

>  <final_energy>  (1) 
-2386341.8444339023 kilocalorie / mole

$$$$
