JNS-01558-05
     RDKit          3D

 42 46  0  0  0  0  0  0  0  0999 V2000
   -0.5288   -0.5261    0.5235 F   0  0  0  0  0  0  0  0  0  0  0  0
    0.1321    0.4657   -0.0935 C   0  0  0  0  0  0  0  0  0  0  0  0
   -0.2762    1.6390    0.4640 F   0  0  0  0  0  0  0  0  0  0  0  0
   -0.2826    0.4925   -1.3901 F   0  0  0  0  0  0  0  0  0  0  0  0
    1.6401    0.3179   -0.0075 C   0  0  0  0  0  0  0  0  0  0  0  0
    2.0990   -0.4709    0.9421 N   0  0  0  0  0  0  0  0  0  0  0  0
    3.4486   -0.5600    1.0137 C   0  0  0  0  0  0  0  0  0  0  0  0
    4.2639   -1.2937    1.9034 C   0  0  0  0  0  0  0  0  0  0  0  0
    5.5435   -1.0029    1.5077 N   0  0  0  0  0  0  0  0  0  0  0  0
    5.6362   -0.1261    0.4629 N   0  0  0  0  0  0  0  0  0  0  0  0
    4.3561    0.1471    0.1581 C   0  0  0  0  0  0  0  0  0  0  0  0
    3.8213    0.9899   -0.8478 C   0  0  0  0  0  0  0  0  0  0  0  0
    2.4477    1.0656   -0.9221 C   0  0  0  0  0  0  0  0  0  0  0  0
    6.7596   -1.5619    2.0080 C   0  0  0  0  0  0  0  0  0  0  0  0
    7.8259   -0.7084    2.3016 C   0  0  0  0  0  0  0  0  0  0  0  0
    9.0161   -1.2487    2.7943 C   0  0  0  0  0  0  0  0  0  0  0  0
    9.1367   -2.6289    2.9899 C   0  0  0  0  0  0  0  0  0  0  0  0
    8.0655   -3.4736    2.6776 C   0  0  0  0  0  0  0  0  0  0  0  0
    6.8739   -2.9446    2.1790 C   0  0  0  0  0  0  0  0  0  0  0  0
    3.8746   -2.1073    3.0554 C   0  0  0  0  0  0  0  0  0  0  0  0
    2.6952   -2.8705    2.9803 C   0  0  0  0  0  0  0  0  0  0  0  0
    2.2572   -3.6478    4.0579 C   0  0  0  0  0  0  0  0  0  0  0  0
    3.0228   -3.6408    5.2201 C   0  0  0  0  0  0  0  0  0  0  0  0
    2.8100   -4.3199    6.4262 N   0  0  0  0  0  0  0  0  0  0  0  0
    3.7894   -4.0417    7.3739 C   0  0  0  0  0  0  0  0  0  0  0  0
    3.8327   -4.4986    8.5028 O   0  0  0  0  0  0  0  0  0  0  0  0
    4.7711   -3.0644    6.7076 C   0  0  0  0  0  0  0  0  0  0  0  0
    4.1970   -2.8694    5.3263 C   0  0  0  0  0  0  0  0  0  0  0  0
    4.6206   -2.1021    4.2574 C   0  0  0  0  0  0  0  0  0  0  0  0
    4.4657    1.5423   -1.5254 H   0  0  0  0  0  0  0  0  0  0  0  0
    1.9642    1.6831   -1.6718 H   0  0  0  0  0  0  0  0  0  0  0  0
    7.7141    0.3582    2.1379 H   0  0  0  0  0  0  0  0  0  0  0  0
    9.8481   -0.5900    3.0270 H   0  0  0  0  0  0  0  0  0  0  0  0
   10.0631   -3.0449    3.3764 H   0  0  0  0  0  0  0  0  0  0  0  0
    8.1591   -4.5475    2.8126 H   0  0  0  0  0  0  0  0  0  0  0  0
    6.0416   -3.5931    1.9271 H   0  0  0  0  0  0  0  0  0  0  0  0
    2.1090   -2.8464    2.0683 H   0  0  0  0  0  0  0  0  0  0  0  0
    1.3440   -4.2313    3.9807 H   0  0  0  0  0  0  0  0  0  0  0  0
    2.0301   -4.9336    6.6279 H   0  0  0  0  0  0  0  0  0  0  0  0
    5.7739   -3.5030    6.7078 H   0  0  0  0  0  0  0  0  0  0  0  0
    4.8175   -2.1439    7.2980 H   0  0  0  0  0  0  0  0  0  0  0  0
    5.5131   -1.4912    4.3470 H   0  0  0  0  0  0  0  0  0  0  0  0
  1  2  1  0
  2  3  1  0
  2  4  1  0
  2  5  1  0
  5  6  2  0
  5 13  1  0
  6  7  1  0
  7  8  2  0
  7 11  1  0
  8  9  1  0
  8 20  1  0
  9 10  1  0
  9 14  1  0
 10 11  2  0
 11 12  1  0
 12 13  2  0
 12 30  1  0
 13 31  1  0
 14 15  2  0
 14 19  1  0
 15 16  1  0
 15 32  1  0
 16 17  2  0
 16 33  1  0
 17 18  1  0
 17 34  1  0
 18 19  2  0
 18 35  1  0
 19 36  1  0
 20 21  2  0
 20 29  1  0
 21 22  1  0
 21 37  1  0
 22 23  2  0
 22 38  1  0
 23 24  1  0
 23 28  1  0
 24 25  1  0
 24 39  1  0
 25 26  2  0
 25 27  1  0
 27 28  1  0
 27 40  1  0
 27 41  1  0
 28 29  2  0
 29 42  1  0
M  END
>  <group_name>  (1) 
JNS

>  <molecule_index>  (1) 
01558

>  <conformer_index>  (1) 
05

>  <method>  (1) 
b3lyp-d3bj

>  <basis>  (1) 
dzvp

>  <program>  (1) 
psi4

>  <initial_energy>  (1) 
-879796.6732440348 kilocalorie / mole

>  <final_energy>  (1) 
-879837.6331689042 kilocalorie / mole

$$$$
