JNS-02157-08
     RDKit          3D

 42 45  0  0  0  0  0  0  0  0999 V2000
   -1.7840    0.7888    0.0758 C   0  0  0  0  0  0  0  0  0  0  0  0
   -0.6432    1.5381    0.7765 C   0  0  2  0  0  0  0  0  0  0  0  0
   -1.1554    2.4551    1.9133 C   0  0  0  0  0  0  0  0  0  0  0  0
   -1.7042    3.6981    1.2927 C   0  0  0  0  0  0  0  0  0  0  0  0
   -1.4481    4.1063    0.0083 C   0  0  0  0  0  0  0  0  0  0  0  0
   -0.5453    3.3801   -0.9381 C   0  0  0  0  0  0  0  0  0  0  0  0
    0.1515    2.3236   -0.1879 N   0  0  0  0  0  0  0  0  0  0  0  0
    1.4857    2.1533   -0.4077 C   0  0  0  0  0  0  0  0  0  0  0  0
    2.1431    2.8065   -1.2155 O   0  0  0  0  0  0  0  0  0  0  0  0
    2.2061    1.1275    0.4412 C   0  0  0  0  0  0  0  0  0  0  0  0
    2.9112    1.5539    1.5690 C   0  0  0  0  0  0  0  0  0  0  0  0
    3.6478    0.6217    2.2982 C   0  0  0  0  0  0  0  0  0  0  0  0
    3.7146   -0.6719    1.9661 N   0  0  0  0  0  0  0  0  0  0  0  0
    3.0545   -1.0880    0.8864 C   0  0  0  0  0  0  0  0  0  0  0  0
    2.2864   -0.2236    0.0878 C   0  0  0  0  0  0  0  0  0  0  0  0
    1.4233   -0.7842   -1.3226 Cl  0  0  0  0  0  0  0  0  0  0  0  0
    3.1734   -2.5797    0.5744 C   0  0  0  0  0  0  0  0  0  0  0  0
    3.9540   -3.2138    1.4578 F   0  0  0  0  0  0  0  0  0  0  0  0
    1.9540   -3.1786    0.6030 F   0  0  0  0  0  0  0  0  0  0  0  0
    3.6960   -2.7857   -0.6582 F   0  0  0  0  0  0  0  0  0  0  0  0
   -2.1465    5.2571   -0.2526 N   0  0  0  0  0  0  0  0  0  0  0  0
   -2.8280    5.5943    0.7991 N   0  0  0  0  0  0  0  0  0  0  0  0
   -2.5751    4.6473    1.7704 N   0  0  0  0  0  0  0  0  0  0  0  0
   -3.1445    4.7627    3.0567 C   0  0  0  0  0  0  0  0  0  0  0  0
   -4.1953    5.5747    3.1838 N   0  0  0  0  0  0  0  0  0  0  0  0
   -4.7073    5.6881    4.4105 C   0  0  0  0  0  0  0  0  0  0  0  0
   -4.1712    4.9720    5.4788 C   0  0  0  0  0  0  0  0  0  0  0  0
   -4.6958    5.0823    6.7152 F   0  0  0  0  0  0  0  0  0  0  0  0
   -3.0869    4.1360    5.2404 C   0  0  0  0  0  0  0  0  0  0  0  0
   -2.5602    4.0357    4.0149 N   0  0  0  0  0  0  0  0  0  0  0  0
   -2.2708    0.1120    0.7845 H   0  0  0  0  0  0  0  0  0  0  0  0
   -1.3953    0.1939   -0.7538 H   0  0  0  0  0  0  0  0  0  0  0  0
   -2.5446    1.4736   -0.3099 H   0  0  0  0  0  0  0  0  0  0  0  0
    0.0244    0.8005    1.2201 H   0  0  0  0  0  0  0  0  0  0  0  0
   -0.3397    2.7036    2.6007 H   0  0  0  0  0  0  0  0  0  0  0  0
   -1.9117    1.9328    2.5040 H   0  0  0  0  0  0  0  0  0  0  0  0
    0.2094    4.0431   -1.3627 H   0  0  0  0  0  0  0  0  0  0  0  0
   -1.1080    2.9470   -1.7745 H   0  0  0  0  0  0  0  0  0  0  0  0
    2.8904    2.5993    1.8634 H   0  0  0  0  0  0  0  0  0  0  0  0
    4.2072    0.9206    3.1819 H   0  0  0  0  0  0  0  0  0  0  0  0
   -5.5614    6.3487    4.5481 H   0  0  0  0  0  0  0  0  0  0  0  0
   -2.6377    3.5515    6.0407 H   0  0  0  0  0  0  0  0  0  0  0  0
  1  2  1  0
  1 31  1  0
  1 32  1  0
  1 33  1  0
  2  3  1  0
  2  7  1  0
  2 34  1  1
  3  4  1  0
  3 35  1  0
  3 36  1  0
  4  5  2  0
  4 23  1  0
  5  6  1  0
  5 21  1  0
  6  7  1  0
  6 37  1  0
  6 38  1  0
  7  8  1  0
  8  9  2  0
  8 10  1  0
 10 11  2  0
 10 15  1  0
 11 12  1  0
 11 39  1  0
 12 13  2  0
 12 40  1  0
 13 14  1  0
 14 15  2  0
 14 17  1  0
 15 16  1  0
 17 18  1  0
 17 19  1  0
 17 20  1  0
 21 22  2  0
 22 23  1  0
 23 24  1  0
 24 25  2  0
 24 30  1  0
 25 26  1  0
 26 27  2  0
 26 41  1  0
 27 28  1  0
 27 29  1  0
 29 30  2  0
 29 42  1  0
M  END
>  <group_name>  (1) 
JNS

>  <molecule_index>  (1) 
02157

>  <conformer_index>  (1) 
08

>  <method>  (1) 
b3lyp-d3bj

>  <basis>  (1) 
dzvp

>  <program>  (1) 
psi4

>  <initial_energy>  (1) 
-1238225.2596079574 kilocalorie / mole

>  <final_energy>  (1) 
-1238276.1610085682 kilocalorie / mole

$$$$
