JNS-01448-01
     RDKit          3D

 43 47  0  0  0  0  0  0  0  0999 V2000
    2.1561    1.3655    3.0593 F   0  0  0  0  0  0  0  0  0  0  0  0
    0.8717    1.0876    3.3808 C   0  0  0  0  0  0  0  0  0  0  0  0
    0.8680   -0.1132    4.0192 F   0  0  0  0  0  0  0  0  0  0  0  0
    0.4472    2.0106    4.2498 F   0  0  0  0  0  0  0  0  0  0  0  0
   -0.0065    1.0598    2.1509 C   0  0  0  0  0  0  0  0  0  0  0  0
   -1.1682    1.6705    2.0996 N   0  0  0  0  0  0  0  0  0  0  0  0
   -1.6327    1.4296    0.8186 C   0  0  0  0  0  0  0  0  0  0  0  0
   -0.6946    0.6435    0.1010 C   0  0  0  0  0  0  0  0  0  0  0  0
   -0.7950    0.2379   -1.1568 N   0  0  0  0  0  0  0  0  0  0  0  0
   -1.9175    0.6330   -1.7677 C   0  0  0  0  0  0  0  0  0  0  0  0
   -2.9318    1.4070   -1.1723 C   0  0  0  0  0  0  0  0  0  0  0  0
   -2.7973    1.8221    0.1546 C   0  0  0  0  0  0  0  0  0  0  0  0
   -2.0323    0.1729   -3.2095 C   0  0  0  0  0  0  0  0  0  0  0  0
   -3.1525    0.6549   -3.8022 F   0  0  0  0  0  0  0  0  0  0  0  0
   -2.0775   -1.1750   -3.3002 F   0  0  0  0  0  0  0  0  0  0  0  0
   -0.9766    0.5892   -3.9482 F   0  0  0  0  0  0  0  0  0  0  0  0
    0.3524    0.4026    0.9840 N   0  0  0  0  0  0  0  0  0  0  0  0
    1.5333   -0.3489    0.6680 C   0  0  0  0  0  0  0  0  0  0  0  0
    1.8598   -1.4792    1.3994 C   0  0  0  0  0  0  0  0  0  0  0  0
    3.0251   -2.1727    1.0262 C   0  0  0  0  0  0  0  0  0  0  0  0
    3.7979   -1.7221   -0.0760 C   0  0  0  0  0  0  0  0  0  0  0  0
    4.8174   -2.6267   -0.2044 N   0  0  0  0  0  0  0  0  0  0  0  0
    4.7518   -3.6239    0.7213 N   0  0  0  0  0  0  0  0  0  0  0  0
    3.6905   -3.3615    1.4683 C   0  0  0  0  0  0  0  0  0  0  0  0
    3.4546   -0.5803   -0.8355 C   0  0  0  0  0  0  0  0  0  0  0  0
    2.3094    0.0934   -0.4277 C   0  0  0  0  0  0  0  0  0  0  0  0
    4.2443   -0.1422   -2.0084 C   0  0  0  0  0  0  0  0  0  0  0  0
    5.6489   -0.0920   -1.9581 C   0  0  0  0  0  0  0  0  0  0  0  0
    6.3863    0.3215   -3.0702 C   0  0  0  0  0  0  0  0  0  0  0  0
    5.7319    0.6897   -4.2504 C   0  0  0  0  0  0  0  0  0  0  0  0
    4.3346    0.6463   -4.3084 C   0  0  0  0  0  0  0  0  0  0  0  0
    3.5960    0.2325   -3.1980 C   0  0  0  0  0  0  0  0  0  0  0  0
   -3.8068    1.6785   -1.7508 H   0  0  0  0  0  0  0  0  0  0  0  0
   -3.5558    2.4240    0.6461 H   0  0  0  0  0  0  0  0  0  0  0  0
    1.2355   -1.8166    2.2194 H   0  0  0  0  0  0  0  0  0  0  0  0
    5.5243   -2.6682   -0.9257 H   0  0  0  0  0  0  0  0  0  0  0  0
    3.4320   -4.0195    2.2885 H   0  0  0  0  0  0  0  0  0  0  0  0
    2.0011    0.9886   -0.9571 H   0  0  0  0  0  0  0  0  0  0  0  0
    6.1642   -0.3322   -1.0312 H   0  0  0  0  0  0  0  0  0  0  0  0
    7.4707    0.3668   -3.0111 H   0  0  0  0  0  0  0  0  0  0  0  0
    6.3055    1.0092   -5.1163 H   0  0  0  0  0  0  0  0  0  0  0  0
    3.8186    0.9255   -5.2232 H   0  0  0  0  0  0  0  0  0  0  0  0
    2.5121    0.1757   -3.2568 H   0  0  0  0  0  0  0  0  0  0  0  0
  1  2  1  0
  2  3  1  0
  2  4  1  0
  2  5  1  0
  5  6  2  0
  5 17  1  0
  6  7  1  0
  7  8  2  0
  7 12  1  0
  8  9  1  0
  8 17  1  0
  9 10  2  0
 10 11  1  0
 10 13  1  0
 11 12  2  0
 11 33  1  0
 12 34  1  0
 13 14  1  0
 13 15  1  0
 13 16  1  0
 17 18  1  0
 18 19  2  0
 18 26  1  0
 19 20  1  0
 19 35  1  0
 20 21  2  0
 20 24  1  0
 21 22  1  0
 21 25  1  0
 22 23  1  0
 22 36  1  0
 23 24  2  0
 24 37  1  0
 25 26  2  0
 25 27  1  0
 26 38  1  0
 27 28  2  0
 27 32  1  0
 28 29  1  0
 28 39  1  0
 29 30  2  0
 29 40  1  0
 30 31  1  0
 30 41  1  0
 31 32  2  0
 31 42  1  0
 32 43  1  0
M  END
>  <group_name>  (1) 
JNS

>  <molecule_index>  (1) 
01448

>  <conformer_index>  (1) 
01

>  <method>  (1) 
b3lyp-d3bj

>  <basis>  (1) 
dzvp

>  <program>  (1) 
psi4

>  <initial_energy>  (1) 
-1054166.237956319 kilocalorie / mole

>  <final_energy>  (1) 
-1054231.301182617 kilocalorie / mole

$$$$
