JNS-01358-03
     RDKit          3D

 41 45  0  0  0  0  0  0  0  0999 V2000
   -3.3988    1.1370    0.1053 F   0  0  0  0  0  0  0  0  0  0  0  0
   -2.4502    0.1847   -0.0233 C   0  0  0  0  0  0  0  0  0  0  0  0
   -2.8817   -1.0407   -0.2197 N   0  0  0  0  0  0  0  0  0  0  0  0
   -1.9371   -1.9896   -0.3609 C   0  0  0  0  0  0  0  0  0  0  0  0
   -0.5722   -1.7303   -0.2985 C   0  0  0  0  0  0  0  0  0  0  0  0
   -0.1440   -0.4091   -0.0705 C   0  0  0  0  0  0  0  0  0  0  0  0
   -1.1175    0.5877    0.0634 C   0  0  0  0  0  0  0  0  0  0  0  0
    1.3000   -0.1341   -0.0273 C   0  0  0  0  0  0  0  0  0  0  0  0
    2.1836   -0.8729   -0.6809 N   0  0  0  0  0  0  0  0  0  0  0  0
    3.4088   -0.2877   -0.4350 C   0  0  0  0  0  0  0  0  0  0  0  0
    3.2473    0.8427    0.4088 C   0  0  0  0  0  0  0  0  0  0  0  0
    4.2004    1.6424    0.8608 N   0  0  0  0  0  0  0  0  0  0  0  0
    5.4304    1.3152    0.4429 C   0  0  0  0  0  0  0  0  0  0  0  0
    5.7315    0.2286   -0.3986 C   0  0  0  0  0  0  0  0  0  0  0  0
    4.7037   -0.6014   -0.8553 C   0  0  0  0  0  0  0  0  0  0  0  0
    6.5253    2.2271    0.9621 C   0  0  0  0  0  0  0  0  0  0  0  0
    7.7386    1.8915    0.4573 F   0  0  0  0  0  0  0  0  0  0  0  0
    6.2967    3.5191    0.6320 F   0  0  0  0  0  0  0  0  0  0  0  0
    6.6231    2.1705    2.3108 F   0  0  0  0  0  0  0  0  0  0  0  0
    1.8837    0.9265    0.6658 N   0  0  0  0  0  0  0  0  0  0  0  0
    1.2906    1.8368    1.5953 C   0  0  0  0  0  0  0  0  0  0  0  0
    1.4069    3.2172    1.3653 C   0  0  0  0  0  0  0  0  0  0  0  0
    0.8331    4.0906    2.2738 C   0  0  0  0  0  0  0  0  0  0  0  0
    0.1453    3.5876    3.3966 C   0  0  0  0  0  0  0  0  0  0  0  0
   -0.3415    4.6589    4.1529 N   0  0  0  0  0  0  0  0  0  0  0  0
   -0.0149    5.8941    3.5986 C   0  0  0  0  0  0  0  0  0  0  0  0
   -0.3214    6.9786    4.0585 O   0  0  0  0  0  0  0  0  0  0  0  0
    0.7889    5.5965    2.3227 C   0  0  0  0  0  0  0  0  0  0  0  0
    0.0313    2.2205    3.6362 C   0  0  0  0  0  0  0  0  0  0  0  0
    0.6278    1.3442    2.7216 C   0  0  0  0  0  0  0  0  0  0  0  0
   -2.3007   -3.0007   -0.5300 H   0  0  0  0  0  0  0  0  0  0  0  0
    0.1565   -2.5226   -0.4255 H   0  0  0  0  0  0  0  0  0  0  0  0
   -0.8800    1.6322    0.2175 H   0  0  0  0  0  0  0  0  0  0  0  0
    6.7596    0.0447   -0.6870 H   0  0  0  0  0  0  0  0  0  0  0  0
    4.9003   -1.4494   -1.5045 H   0  0  0  0  0  0  0  0  0  0  0  0
    1.9441    3.5777    0.4934 H   0  0  0  0  0  0  0  0  0  0  0  0
   -0.8764    4.5821    5.0094 H   0  0  0  0  0  0  0  0  0  0  0  0
    1.7789    6.0564    2.4034 H   0  0  0  0  0  0  0  0  0  0  0  0
    0.2860    6.0515    1.4638 H   0  0  0  0  0  0  0  0  0  0  0  0
   -0.4920    1.8359    4.5067 H   0  0  0  0  0  0  0  0  0  0  0  0
    0.5691    0.2721    2.8810 H   0  0  0  0  0  0  0  0  0  0  0  0
  1  2  1  0
  2  3  2  0
  2  7  1  0
  3  4  1  0
  4  5  2  0
  4 31  1  0
  5  6  1  0
  5 32  1  0
  6  7  2  0
  6  8  1  0
  7 33  1  0
  8  9  2  0
  8 20  1  0
  9 10  1  0
 10 11  2  0
 10 15  1  0
 11 12  1  0
 11 20  1  0
 12 13  2  0
 13 14  1  0
 13 16  1  0
 14 15  2  0
 14 34  1  0
 15 35  1  0
 16 17  1  0
 16 18  1  0
 16 19  1  0
 20 21  1  0
 21 22  2  0
 21 30  1  0
 22 23  1  0
 22 36  1  0
 23 24  2  0
 23 28  1  0
 24 25  1  0
 24 29  1  0
 25 26  1  0
 25 37  1  0
 26 27  2  0
 26 28  1  0
 28 38  1  0
 28 39  1  0
 29 30  2  0
 29 40  1  0
 30 41  1  0
M  END
>  <group_name>  (1) 
JNS

>  <molecule_index>  (1) 
01358

>  <conformer_index>  (1) 
03

>  <method>  (1) 
b3lyp-d3bj

>  <basis>  (1) 
dzvp

>  <program>  (1) 
psi4

>  <initial_energy>  (1) 
-952174.5066404162 kilocalorie / mole

>  <final_energy>  (1) 
-952214.8391627814 kilocalorie / mole

$$$$
