JNS-01596-03
     RDKit          3D

 37 41  0  0  0  0  0  0  0  0999 V2000
   -3.9302    2.0047    0.7336 F   0  0  0  0  0  0  0  0  0  0  0  0
   -3.5718    0.7211    0.7241 C   0  0  0  0  0  0  0  0  0  0  0  0
   -4.4709   -0.2517    0.9782 N   0  0  0  0  0  0  0  0  0  0  0  0
   -3.9476   -1.5064    0.9278 N   0  0  0  0  0  0  0  0  0  0  0  0
   -2.6501   -1.2889    0.6233 C   0  0  0  0  0  0  0  0  0  0  0  0
   -2.3446    0.1122    0.4784 C   0  0  0  0  0  0  0  0  0  0  0  0
   -1.0390    0.5580    0.1523 C   0  0  0  0  0  0  0  0  0  0  0  0
   -0.0701   -0.4055   -0.0076 C   0  0  0  0  0  0  0  0  0  0  0  0
   -0.3538   -1.8027    0.1608 C   0  0  0  0  0  0  0  0  0  0  0  0
   -1.6172   -2.2524    0.4590 C   0  0  0  0  0  0  0  0  0  0  0  0
    1.2729   -0.0157   -0.2891 N   0  0  0  0  0  0  0  0  0  0  0  0
    2.1171   -0.4986   -1.2886 C   0  0  0  0  0  0  0  0  0  0  0  0
    3.3347    0.0137   -1.2285 N   0  0  0  0  0  0  0  0  0  0  0  0
    3.3181    0.8823   -0.1529 C   0  0  0  0  0  0  0  0  0  0  0  0
    2.0305    0.8915    0.4498 C   0  0  0  0  0  0  0  0  0  0  0  0
    1.6422    1.6148    1.4854 N   0  0  0  0  0  0  0  0  0  0  0  0
    2.6008    2.4050    1.9948 C   0  0  0  0  0  0  0  0  0  0  0  0
    3.9124    2.4892    1.5022 C   0  0  0  0  0  0  0  0  0  0  0  0
    4.2923    1.7128    0.4003 C   0  0  0  0  0  0  0  0  0  0  0  0
    2.1546    3.2383    3.1776 C   0  0  0  0  0  0  0  0  0  0  0  0
    1.7475    2.4672    4.2133 F   0  0  0  0  0  0  0  0  0  0  0  0
    3.1541    4.0326    3.6397 F   0  0  0  0  0  0  0  0  0  0  0  0
    1.1175    4.0499    2.8570 F   0  0  0  0  0  0  0  0  0  0  0  0
    1.6678   -1.4736   -2.2943 C   0  0  0  0  0  0  0  0  0  0  0  0
    2.4981   -2.7426   -2.5028 C   0  0  0  0  0  0  0  0  0  0  0  0
    2.5060   -1.6628   -3.5453 C   0  0  0  0  0  0  0  0  0  0  0  0
   -5.4520   -0.1252    1.1979 H   0  0  0  0  0  0  0  0  0  0  0  0
   -0.8039    1.6115    0.0513 H   0  0  0  0  0  0  0  0  0  0  0  0
    0.4644   -2.5087    0.0570 H   0  0  0  0  0  0  0  0  0  0  0  0
   -1.8289   -3.3095    0.5880 H   0  0  0  0  0  0  0  0  0  0  0  0
    4.6209    3.1583    1.9763 H   0  0  0  0  0  0  0  0  0  0  0  0
    5.2978    1.7570   -0.0075 H   0  0  0  0  0  0  0  0  0  0  0  0
    0.5932   -1.5764   -2.3938 H   0  0  0  0  0  0  0  0  0  0  0  0
    3.3808   -2.8452   -1.8799 H   0  0  0  0  0  0  0  0  0  0  0  0
    1.9514   -3.6602   -2.6992 H   0  0  0  0  0  0  0  0  0  0  0  0
    3.3932   -1.0438   -3.6202 H   0  0  0  0  0  0  0  0  0  0  0  0
    1.9660   -1.8324   -4.4716 H   0  0  0  0  0  0  0  0  0  0  0  0
  1  2  1  0
  2  3  1  0
  2  6  2  0
  3  4  1  0
  3 27  1  0
  4  5  2  0
  5  6  1  0
  5 10  1  0
  6  7  1  0
  7  8  2  0
  7 28  1  0
  8  9  1  0
  8 11  1  0
  9 10  2  0
  9 29  1  0
 10 30  1  0
 11 12  1  0
 11 15  1  0
 12 13  2  0
 12 24  1  0
 13 14  1  0
 14 15  2  0
 14 19  1  0
 15 16  1  0
 16 17  2  0
 17 18  1  0
 17 20  1  0
 18 19  2  0
 18 31  1  0
 19 32  1  0
 20 21  1  0
 20 22  1  0
 20 23  1  0
 24 25  1  0
 24 26  1  0
 24 33  1  0
 25 26  1  0
 25 34  1  0
 25 35  1  0
 26 36  1  0
 26 37  1  0
M  END
>  <group_name>  (1) 
JNS

>  <molecule_index>  (1) 
01596

>  <conformer_index>  (1) 
03

>  <method>  (1) 
b3lyp-d3bj

>  <basis>  (1) 
dzvp

>  <program>  (1) 
psi4

>  <initial_energy>  (1) 
-833118.8363754214 kilocalorie / mole

>  <final_energy>  (1) 
-833195.8234434673 kilocalorie / mole

$$$$
