JNS-02002-04
     RDKit          3D

 38 40  0  0  0  0  0  0  0  0999 V2000
    0.0971   -0.6495    0.6956 C   0  0  0  0  0  0  0  0  0  0  0  0
    1.4890   -0.2618    0.2627 C   0  0  0  0  0  0  0  0  0  0  0  0
    2.3837   -1.2639    0.1910 N   0  0  0  0  0  0  0  0  0  0  0  0
    3.6206   -0.9350   -0.1930 C   0  0  0  0  0  0  0  0  0  0  0  0
    4.0558    0.3413   -0.5190 C   0  0  0  0  0  0  0  0  0  0  0  0
    3.1220    1.4035   -0.4402 C   0  0  0  0  0  0  0  0  0  0  0  0
    1.8097    1.0632   -0.0383 C   0  0  0  0  0  0  0  0  0  0  0  0
    3.4754    2.6864   -0.7359 N   0  0  0  0  0  0  0  0  0  0  0  0
    2.5252    3.8006   -0.7874 C   0  0  0  0  0  0  0  0  0  0  0  0
    3.3489    4.9302   -1.4174 C   0  0  0  0  0  0  0  0  0  0  0  0
    4.7855    4.6402   -0.9461 C   0  0  2  0  0  0  0  0  0  0  0  0
    5.0349    5.0906    0.5203 C   0  0  0  0  0  0  0  0  0  0  0  0
    6.4842    5.6101    0.4966 C   0  0  0  0  0  0  0  0  0  0  0  0
    6.6562    6.2402   -0.8234 N   0  0  0  0  0  0  0  0  0  0  0  0
    5.9187    5.3585   -1.7455 C   0  0  0  0  0  0  0  0  0  0  0  0
    4.8347    3.1068   -1.0697 C   0  0  0  0  0  0  0  0  0  0  0  0
    4.5846   -2.1073   -0.2557 C   0  0  0  0  0  0  0  0  0  0  0  0
    5.8190   -1.7279   -0.6858 F   0  0  0  0  0  0  0  0  0  0  0  0
    4.1518   -3.0697   -1.1008 F   0  0  0  0  0  0  0  0  0  0  0  0
    4.7512   -2.6822    0.9581 F   0  0  0  0  0  0  0  0  0  0  0  0
    0.1297   -1.1176    1.6844 H   0  0  0  0  0  0  0  0  0  0  0  0
   -0.5744    0.2121    0.7346 H   0  0  0  0  0  0  0  0  0  0  0  0
   -0.3168   -1.3890    0.0029 H   0  0  0  0  0  0  0  0  0  0  0  0
    5.0771    0.5048   -0.8357 H   0  0  0  0  0  0  0  0  0  0  0  0
    1.0449    1.8264    0.0508 H   0  0  0  0  0  0  0  0  0  0  0  0
    1.6461    3.5414   -1.3881 H   0  0  0  0  0  0  0  0  0  0  0  0
    2.1774    4.0651    0.2215 H   0  0  0  0  0  0  0  0  0  0  0  0
    3.2941    4.8582   -2.5097 H   0  0  0  0  0  0  0  0  0  0  0  0
    2.9943    5.9224   -1.1249 H   0  0  0  0  0  0  0  0  0  0  0  0
    4.3573    5.9116    0.7843 H   0  0  0  0  0  0  0  0  0  0  0  0
    4.8704    4.2843    1.2420 H   0  0  0  0  0  0  0  0  0  0  0  0
    7.1929    4.7764    0.5790 H   0  0  0  0  0  0  0  0  0  0  0  0
    6.7128    6.3173    1.2984 H   0  0  0  0  0  0  0  0  0  0  0  0
    6.1946    7.1483   -0.8031 H   0  0  0  0  0  0  0  0  0  0  0  0
    6.6161    4.6137   -2.1478 H   0  0  0  0  0  0  0  0  0  0  0  0
    5.5333    5.9307   -2.5943 H   0  0  0  0  0  0  0  0  0  0  0  0
    5.1067    2.7978   -2.0905 H   0  0  0  0  0  0  0  0  0  0  0  0
    5.5666    2.6680   -0.3824 H   0  0  0  0  0  0  0  0  0  0  0  0
  1  2  1  0
  1 21  1  0
  1 22  1  0
  1 23  1  0
  2  3  2  0
  2  7  1  0
  3  4  1  0
  4  5  2  0
  4 17  1  0
  5  6  1  0
  5 24  1  0
  6  7  2  0
  6  8  1  0
  7 25  1  0
  8  9  1  0
  8 16  1  0
  9 10  1  0
  9 26  1  0
  9 27  1  0
 11 10  1  6
 10 28  1  0
 10 29  1  0
 11 12  1  0
 11 15  1  0
 11 16  1  0
 12 13  1  0
 12 30  1  0
 12 31  1  0
 13 14  1  0
 13 32  1  0
 13 33  1  0
 14 15  1  0
 14 34  1  0
 15 35  1  0
 15 36  1  0
 16 37  1  0
 16 38  1  0
 17 18  1  0
 17 19  1  0
 17 20  1  0
M  END
>  <group_name>  (1) 
JNS

>  <molecule_index>  (1) 
02002

>  <conformer_index>  (1) 
04

>  <method>  (1) 
b3lyp-d3bj

>  <basis>  (1) 
dzvp

>  <program>  (1) 
psi4

>  <initial_energy>  (1) 
-632707.7566938307 kilocalorie / mole

>  <final_energy>  (1) 
-632737.6167791965 kilocalorie / mole

$$$$
