JNS-01658-00
     RDKit          3D

 38 41  0  0  0  0  0  0  0  0999 V2000
   -0.1264   -2.2233   -1.7003 C   0  0  0  0  0  0  0  0  0  0  0  0
   -0.7202   -0.9748   -1.1380 C   0  0  0  0  0  0  0  0  0  0  0  0
   -2.0004   -0.6623   -1.2107 N   0  0  0  0  0  0  0  0  0  0  0  0
   -2.1136    0.5762   -0.6011 C   0  0  0  0  0  0  0  0  0  0  0  0
   -0.8402    1.0166   -0.1511 C   0  0  0  0  0  0  0  0  0  0  0  0
   -0.5620    2.1573    0.4587 N   0  0  0  0  0  0  0  0  0  0  0  0
   -1.6281    2.9475    0.6558 C   0  0  0  0  0  0  0  0  0  0  0  0
   -2.9410    2.6333    0.2684 C   0  0  0  0  0  0  0  0  0  0  0  0
   -3.2022    1.4188   -0.3776 C   0  0  0  0  0  0  0  0  0  0  0  0
   -1.3078    4.2583    1.3445 C   0  0  0  0  0  0  0  0  0  0  0  0
   -2.4148    5.0267    1.5055 F   0  0  0  0  0  0  0  0  0  0  0  0
   -0.4147    4.9906    0.6349 F   0  0  0  0  0  0  0  0  0  0  0  0
   -0.7738    4.0655    2.5733 F   0  0  0  0  0  0  0  0  0  0  0  0
    0.0442   -0.0005   -0.4963 N   0  0  0  0  0  0  0  0  0  0  0  0
    1.4495    0.0021   -0.2483 C   0  0  0  0  0  0  0  0  0  0  0  0
    2.2192    1.0892   -0.6917 C   0  0  0  0  0  0  0  0  0  0  0  0
    3.5771    1.0845   -0.4184 C   0  0  0  0  0  0  0  0  0  0  0  0
    4.1536    0.0060    0.2752 C   0  0  0  0  0  0  0  0  0  0  0  0
    5.5292    0.2378    0.4240 N   0  0  0  0  0  0  0  0  0  0  0  0
    5.9270    1.4479   -0.1358 C   0  0  0  0  0  0  0  0  0  0  0  0
    7.0638    1.8860   -0.1388 O   0  0  0  0  0  0  0  0  0  0  0  0
    4.6609    2.0861   -0.7288 C   0  0  0  0  0  0  0  0  0  0  0  0
    3.4106   -1.0863    0.7281 C   0  0  0  0  0  0  0  0  0  0  0  0
    4.0579   -2.2193    1.4849 C   0  0  0  0  0  0  0  0  0  0  0  0
    2.0343   -1.0536    0.4581 C   0  0  0  0  0  0  0  0  0  0  0  0
   -0.8293   -2.6451   -2.4198 H   0  0  0  0  0  0  0  0  0  0  0  0
    0.8297   -2.0224   -2.1915 H   0  0  0  0  0  0  0  0  0  0  0  0
    0.0534   -2.9691   -0.9190 H   0  0  0  0  0  0  0  0  0  0  0  0
   -3.7416    3.3353    0.4692 H   0  0  0  0  0  0  0  0  0  0  0  0
   -4.2049    1.1458   -0.6933 H   0  0  0  0  0  0  0  0  0  0  0  0
    1.7474    1.9129   -1.2174 H   0  0  0  0  0  0  0  0  0  0  0  0
    6.1858   -0.3732    0.8931 H   0  0  0  0  0  0  0  0  0  0  0  0
    4.8093    2.2585   -1.7993 H   0  0  0  0  0  0  0  0  0  0  0  0
    4.4948    3.0618   -0.2612 H   0  0  0  0  0  0  0  0  0  0  0  0
    4.5407   -1.8631    2.4029 H   0  0  0  0  0  0  0  0  0  0  0  0
    4.8259   -2.7176    0.8807 H   0  0  0  0  0  0  0  0  0  0  0  0
    3.3222   -2.9745    1.7716 H   0  0  0  0  0  0  0  0  0  0  0  0
    1.4038   -1.8596    0.8222 H   0  0  0  0  0  0  0  0  0  0  0  0
  1  2  1  0
  1 26  1  0
  1 27  1  0
  1 28  1  0
  2  3  2  0
  2 14  1  0
  3  4  1  0
  4  5  2  0
  4  9  1  0
  5  6  1  0
  5 14  1  0
  6  7  2  0
  7  8  1  0
  7 10  1  0
  8  9  2  0
  8 29  1  0
  9 30  1  0
 10 11  1  0
 10 12  1  0
 10 13  1  0
 14 15  1  0
 15 16  2  0
 15 25  1  0
 16 17  1  0
 16 31  1  0
 17 18  2  0
 17 22  1  0
 18 19  1  0
 18 23  1  0
 19 20  1  0
 19 32  1  0
 20 21  2  0
 20 22  1  0
 22 33  1  0
 22 34  1  0
 23 24  1  0
 23 25  2  0
 24 35  1  0
 24 36  1  0
 24 37  1  0
 25 38  1  0
M  END
>  <group_name>  (1) 
JNS

>  <molecule_index>  (1) 
01658

>  <conformer_index>  (1) 
00

>  <method>  (1) 
b3lyp-d3bj

>  <basis>  (1) 
dzvp

>  <program>  (1) 
psi4

>  <initial_energy>  (1) 
-784161.6747136631 kilocalorie / mole

>  <final_energy>  (1) 
-784200.7612129146 kilocalorie / mole

$$$$
