JNS-01374-07
     RDKit          3D

 32 35  0  0  0  0  0  0  0  0999 V2000
   -0.7399   -0.1296   -0.0800 F   0  0  0  0  0  0  0  0  0  0  0  0
    0.0820   -0.2671    0.9943 C   0  0  0  0  0  0  0  0  0  0  0  0
   -0.2070   -1.4631    1.5622 F   0  0  0  0  0  0  0  0  0  0  0  0
   -0.2148    0.6975    1.8685 F   0  0  0  0  0  0  0  0  0  0  0  0
    1.5314   -0.2013    0.5777 C   0  0  0  0  0  0  0  0  0  0  0  0
    2.3442    0.7662    0.9310 N   0  0  0  0  0  0  0  0  0  0  0  0
    3.5542    0.4361    0.3437 C   0  0  0  0  0  0  0  0  0  0  0  0
    3.4312   -0.7751   -0.3808 C   0  0  0  0  0  0  0  0  0  0  0  0
    4.3814   -1.3995   -1.0663 N   0  0  0  0  0  0  0  0  0  0  0  0
    5.5610   -0.7762   -1.0384 C   0  0  0  0  0  0  0  0  0  0  0  0
    5.8216    0.4340   -0.3597 C   0  0  0  0  0  0  0  0  0  0  0  0
    4.8038    1.0659    0.3517 C   0  0  0  0  0  0  0  0  0  0  0  0
    6.6980   -1.4323   -1.8041 C   0  0  0  0  0  0  0  0  0  0  0  0
    7.1646   -0.6035   -2.7771 F   0  0  0  0  0  0  0  0  0  0  0  0
    7.7495   -1.6874   -0.9794 F   0  0  0  0  0  0  0  0  0  0  0  0
    6.3417   -2.5851   -2.3835 F   0  0  0  0  0  0  0  0  0  0  0  0
    2.1086   -1.1748   -0.2229 N   0  0  0  0  0  0  0  0  0  0  0  0
    1.5246   -2.3614   -0.7707 C   0  0  0  0  0  0  0  0  0  0  0  0
    0.6688   -2.2894   -1.8615 C   0  0  0  0  0  0  0  0  0  0  0  0
    0.1550   -3.5061   -2.3303 C   0  0  0  0  0  0  0  0  0  0  0  0
    0.5677   -4.6910   -1.6589 C   0  0  0  0  0  0  0  0  0  0  0  0
   -0.0573   -5.7195   -2.3008 N   0  0  0  0  0  0  0  0  0  0  0  0
   -0.8366   -5.2879   -3.3317 N   0  0  0  0  0  0  0  0  0  0  0  0
   -0.7213   -3.9683   -3.3629 C   0  0  0  0  0  0  0  0  0  0  0  0
    1.4004   -4.7766   -0.6127 N   0  0  0  0  0  0  0  0  0  0  0  0
    1.8640   -3.6067   -0.1860 C   0  0  0  0  0  0  0  0  0  0  0  0
    6.8181    0.8613   -0.3985 H   0  0  0  0  0  0  0  0  0  0  0  0
    4.9681    1.9967    0.8859 H   0  0  0  0  0  0  0  0  0  0  0  0
    0.4189   -1.3343   -2.3136 H   0  0  0  0  0  0  0  0  0  0  0  0
    0.0072   -6.7080   -2.0948 H   0  0  0  0  0  0  0  0  0  0  0  0
   -1.2595   -3.3989   -4.1104 H   0  0  0  0  0  0  0  0  0  0  0  0
    2.5445   -3.6235    0.6630 H   0  0  0  0  0  0  0  0  0  0  0  0
  1  2  1  0
  2  3  1  0
  2  4  1  0
  2  5  1  0
  5  6  2  0
  5 17  1  0
  6  7  1  0
  7  8  2  0
  7 12  1  0
  8  9  1  0
  8 17  1  0
  9 10  2  0
 10 11  1  0
 10 13  1  0
 11 12  2  0
 11 27  1  0
 12 28  1  0
 13 14  1  0
 13 15  1  0
 13 16  1  0
 17 18  1  0
 18 19  2  0
 18 26  1  0
 19 20  1  0
 19 29  1  0
 20 21  2  0
 20 24  1  0
 21 22  1  0
 21 25  1  0
 22 23  1  0
 22 30  1  0
 23 24  2  0
 24 31  1  0
 25 26  2  0
 26 32  1  0
M  END
>  <group_name>  (1) 
JNS

>  <molecule_index>  (1) 
01374

>  <conformer_index>  (1) 
07

>  <method>  (1) 
b3lyp-d3bj

>  <basis>  (1) 
dzvp

>  <program>  (1) 
psi4

>  <initial_energy>  (1) 
-919230.88595437 kilocalorie / mole

>  <final_energy>  (1) 
-919279.3488796877 kilocalorie / mole

$$$$
