JNS-00617-01
     RDKit          3D

 44 48  0  0  0  0  0  0  0  0999 V2000
   -1.6603   -4.8822    0.9294 F   0  0  0  0  0  0  0  0  0  0  0  0
   -1.4727   -4.3255   -0.3011 C   0  0  0  0  0  0  0  0  0  0  0  0
   -0.2317   -4.6338   -0.6994 F   0  0  0  0  0  0  0  0  0  0  0  0
   -2.3445   -4.9547   -1.1390 F   0  0  0  0  0  0  0  0  0  0  0  0
   -1.7376   -2.8318   -0.2649 C   0  0  0  0  0  0  0  0  0  0  0  0
   -0.6870   -2.0405   -0.3346 N   0  0  0  0  0  0  0  0  0  0  0  0
   -0.9629   -0.7159   -0.2650 C   0  0  0  0  0  0  0  0  0  0  0  0
   -0.0984    0.3988   -0.3180 C   0  0  0  0  0  0  0  0  0  0  0  0
   -0.9213    1.4806   -0.2090 N   0  0  0  0  0  0  0  0  0  0  0  0
   -0.5354    2.8809   -0.0121 C   0  0  0  0  0  0  0  0  0  0  0  0
    0.1655    3.1002    1.3277 C   0  0  0  0  0  0  0  0  0  0  0  0
   -0.7471    2.8423    2.5623 C   0  0  0  0  0  0  0  0  0  0  0  0
   -0.9822    4.3758    2.6810 C   0  0  0  0  0  0  0  0  0  0  0  0
    0.2180    4.6077    1.7180 C   0  0  0  0  0  0  0  0  0  0  0  0
   -2.2440    1.1812   -0.0889 N   0  0  0  0  0  0  0  0  0  0  0  0
   -2.2796   -0.1647   -0.1308 C   0  0  0  0  0  0  0  0  0  0  0  0
   -3.3815   -1.0507   -0.0610 C   0  0  0  0  0  0  0  0  0  0  0  0
   -3.0938   -2.3968   -0.1273 C   0  0  0  0  0  0  0  0  0  0  0  0
    1.3639    0.4462   -0.4437 C   0  0  0  0  0  0  0  0  0  0  0  0
    1.9836    1.2843   -1.3999 C   0  0  0  0  0  0  0  0  0  0  0  0
    3.3718    1.3451   -1.5351 C   0  0  0  0  0  0  0  0  0  0  0  0
    4.1228    0.5292   -0.6919 C   0  0  0  0  0  0  0  0  0  0  0  0
    5.4985    0.3389   -0.5307 N   0  0  0  0  0  0  0  0  0  0  0  0
    5.6333   -0.6348    0.4540 C   0  0  0  0  0  0  0  0  0  0  0  0
    6.8424   -1.1091    0.8245 O   0  0  0  0  0  0  0  0  0  0  0  0
    4.5075   -1.0411    0.9625 N   0  0  0  0  0  0  0  0  0  0  0  0
    3.5265   -0.3391    0.2569 C   0  0  0  0  0  0  0  0  0  0  0  0
    2.1376   -0.3848    0.3825 C   0  0  0  0  0  0  0  0  0  0  0  0
   -1.4691    3.4427   -0.0659 H   0  0  0  0  0  0  0  0  0  0  0  0
    0.1066    3.2045   -0.8338 H   0  0  0  0  0  0  0  0  0  0  0  0
    1.1241    2.5758    1.3274 H   0  0  0  0  0  0  0  0  0  0  0  0
   -1.6246    2.2118    2.3970 H   0  0  0  0  0  0  0  0  0  0  0  0
   -0.1791    2.4415    3.4064 H   0  0  0  0  0  0  0  0  0  0  0  0
   -0.9038    4.8138    3.6796 H   0  0  0  0  0  0  0  0  0  0  0  0
   -1.9354    4.6857    2.2431 H   0  0  0  0  0  0  0  0  0  0  0  0
    0.0808    5.3330    0.9084 H   0  0  0  0  0  0  0  0  0  0  0  0
    1.1397    4.8567    2.2512 H   0  0  0  0  0  0  0  0  0  0  0  0
   -4.3989   -0.6839    0.0402 H   0  0  0  0  0  0  0  0  0  0  0  0
   -3.8847   -3.1384   -0.0819 H   0  0  0  0  0  0  0  0  0  0  0  0
    1.3656    1.8716   -2.0717 H   0  0  0  0  0  0  0  0  0  0  0  0
    3.8310    1.9920   -2.2778 H   0  0  0  0  0  0  0  0  0  0  0  0
    6.2085    0.6014   -1.2023 H   0  0  0  0  0  0  0  0  0  0  0  0
    7.5307   -0.4464    0.6537 H   0  0  0  0  0  0  0  0  0  0  0  0
    1.6688   -1.0478    1.1016 H   0  0  0  0  0  0  0  0  0  0  0  0
  1  2  1  0
  2  3  1  0
  2  4  1  0
  2  5  1  0
  5  6  2  0
  5 18  1  0
  6  7  1  0
  7  8  2  0
  7 16  1  0
  8  9  1  0
  8 19  1  0
  9 10  1  0
  9 15  1  0
 10 11  1  0
 10 29  1  0
 10 30  1  0
 11 12  1  0
 11 14  1  0
 11 31  1  0
 12 13  1  0
 12 32  1  0
 12 33  1  0
 13 14  1  0
 13 34  1  0
 13 35  1  0
 14 36  1  0
 14 37  1  0
 15 16  2  0
 16 17  1  0
 17 18  2  0
 17 38  1  0
 18 39  1  0
 19 20  2  0
 19 28  1  0
 20 21  1  0
 20 40  1  0
 21 22  2  0
 21 41  1  0
 22 23  1  0
 22 27  1  0
 23 24  1  0
 23 42  1  0
 24 25  1  0
 24 26  2  0
 25 43  1  0
 26 27  1  0
 27 28  2  0
 28 44  1  0
M  END
>  <group_name>  (1) 
JNS

>  <molecule_index>  (1) 
00617

>  <conformer_index>  (1) 
01

>  <method>  (1) 
b3lyp-d3bj

>  <basis>  (1) 
dzvp

>  <program>  (1) 
psi4

>  <initial_energy>  (1) 
-867402.2585280031 kilocalorie / mole

>  <final_energy>  (1) 
-867474.8910751501 kilocalorie / mole

$$$$
