JNS-01614-03
     RDKit          3D

 39 42  0  0  0  0  0  0  0  0999 V2000
   -0.3549    1.3397   -1.3512 C   0  0  0  0  0  0  0  0  0  0  0  0
    0.0194    0.3277   -0.2528 C   0  0  0  0  0  0  0  0  0  0  0  0
    1.4998    0.1541   -0.1139 C   0  0  0  0  0  0  0  0  0  0  0  0
    2.3009    1.0543    0.4265 N   0  0  0  0  0  0  0  0  0  0  0  0
    3.5695    0.5048    0.3666 C   0  0  0  0  0  0  0  0  0  0  0  0
    3.5163   -0.7821   -0.2351 C   0  0  0  0  0  0  0  0  0  0  0  0
    4.5298   -1.6060   -0.4449 N   0  0  0  0  0  0  0  0  0  0  0  0
    5.7154   -1.1312   -0.0343 C   0  0  0  0  0  0  0  0  0  0  0  0
    5.9114    0.1221    0.5695 C   0  0  0  0  0  0  0  0  0  0  0  0
    4.8178    0.9698    0.7808 C   0  0  0  0  0  0  0  0  0  0  0  0
    6.8769   -2.0748   -0.2690 C   0  0  0  0  0  0  0  0  0  0  0  0
    8.0505   -1.5466    0.1647 F   0  0  0  0  0  0  0  0  0  0  0  0
    7.0326   -2.3655   -1.5818 F   0  0  0  0  0  0  0  0  0  0  0  0
    6.7070   -3.2518    0.3805 F   0  0  0  0  0  0  0  0  0  0  0  0
    2.1757   -0.9857   -0.5462 N   0  0  0  0  0  0  0  0  0  0  0  0
    1.6346   -2.1484   -1.1772 C   0  0  0  0  0  0  0  0  0  0  0  0
    1.7521   -3.3791   -0.5518 C   0  0  0  0  0  0  0  0  0  0  0  0
    1.2235   -4.4996   -1.2189 C   0  0  0  0  0  0  0  0  0  0  0  0
    0.5912   -4.3375   -2.4783 C   0  0  0  0  0  0  0  0  0  0  0  0
    0.1824   -5.5914   -2.8509 N   0  0  0  0  0  0  0  0  0  0  0  0
    0.5095   -6.5423   -1.9304 N   0  0  0  0  0  0  0  0  0  0  0  0
    1.1304   -5.9034   -0.9503 C   0  0  0  0  0  0  0  0  0  0  0  0
    0.4745   -3.0909   -3.1273 C   0  0  0  0  0  0  0  0  0  0  0  0
   -0.1846   -2.9651   -4.4764 C   0  0  0  0  0  0  0  0  0  0  0  0
    1.0206   -2.0102   -2.4483 C   0  0  0  0  0  0  0  0  0  0  0  0
   -0.0195    1.0023   -2.3369 H   0  0  0  0  0  0  0  0  0  0  0  0
   -1.4406    1.4721   -1.3905 H   0  0  0  0  0  0  0  0  0  0  0  0
    0.1074    2.3092   -1.1494 H   0  0  0  0  0  0  0  0  0  0  0  0
   -0.3547    0.6889    0.7101 H   0  0  0  0  0  0  0  0  0  0  0  0
   -0.4509   -0.6394   -0.4478 H   0  0  0  0  0  0  0  0  0  0  0  0
    6.9085    0.4218    0.8698 H   0  0  0  0  0  0  0  0  0  0  0  0
    4.9340    1.9436    1.2475 H   0  0  0  0  0  0  0  0  0  0  0  0
    2.2455   -3.4647    0.4108 H   0  0  0  0  0  0  0  0  0  0  0  0
   -0.2888   -5.8765   -3.6977 H   0  0  0  0  0  0  0  0  0  0  0  0
    1.4916   -6.4560   -0.0919 H   0  0  0  0  0  0  0  0  0  0  0  0
    0.3322   -3.5726   -5.2293 H   0  0  0  0  0  0  0  0  0  0  0  0
   -0.1791   -1.9294   -4.8241 H   0  0  0  0  0  0  0  0  0  0  0  0
   -1.2284   -3.3007   -4.4427 H   0  0  0  0  0  0  0  0  0  0  0  0
    0.9932   -1.0244   -2.9036 H   0  0  0  0  0  0  0  0  0  0  0  0
  1  2  1  0
  1 26  1  0
  1 27  1  0
  1 28  1  0
  2  3  1  0
  2 29  1  0
  2 30  1  0
  3  4  2  0
  3 15  1  0
  4  5  1  0
  5  6  2  0
  5 10  1  0
  6  7  1  0
  6 15  1  0
  7  8  2  0
  8  9  1  0
  8 11  1  0
  9 10  2  0
  9 31  1  0
 10 32  1  0
 11 12  1  0
 11 13  1  0
 11 14  1  0
 15 16  1  0
 16 17  2  0
 16 25  1  0
 17 18  1  0
 17 33  1  0
 18 19  2  0
 18 22  1  0
 19 20  1  0
 19 23  1  0
 20 21  1  0
 20 34  1  0
 21 22  2  0
 22 35  1  0
 23 24  1  0
 23 25  2  0
 24 36  1  0
 24 37  1  0
 24 38  1  0
 25 39  1  0
M  END
>  <group_name>  (1) 
JNS

>  <molecule_index>  (1) 
01614

>  <conformer_index>  (1) 
03

>  <method>  (1) 
b3lyp-d3bj

>  <basis>  (1) 
dzvp

>  <program>  (1) 
psi4

>  <initial_energy>  (1) 
-771669.6548008583 kilocalorie / mole

>  <final_energy>  (1) 
-771704.9787430875 kilocalorie / mole

$$$$
