JNS-01548-06
     RDKit          3D

 36 39  0  0  0  0  0  0  0  0999 V2000
   -2.9038   -1.9311   -1.8945 C   0  0  0  0  0  0  0  0  0  0  0  0
   -2.1069   -1.0777   -0.9433 C   0  0  0  0  0  0  0  0  0  0  0  0
   -0.7131   -1.0304   -0.9762 C   0  0  0  0  0  0  0  0  0  0  0  0
    0.0111   -0.2203   -0.0885 C   0  0  0  0  0  0  0  0  0  0  0  0
   -0.6179    0.5524    0.8859 C   0  0  0  0  0  0  0  0  0  0  0  0
   -2.0080    0.4938    0.9312 C   0  0  0  0  0  0  0  0  0  0  0  0
   -2.7610   -0.2990    0.0306 C   0  0  0  0  0  0  0  0  0  0  0  0
   -4.1398   -0.2486    0.1969 N   0  0  0  0  0  0  0  0  0  0  0  0
   -4.4499    0.5342    1.1699 C   0  0  0  0  0  0  0  0  0  0  0  0
   -5.7296    0.7523    1.5313 O   0  0  0  0  0  0  0  0  0  0  0  0
   -3.0993    1.3279    2.0282 S   0  0  0  0  0  0  0  0  0  0  0  0
    1.4439   -0.2077   -0.1500 N   0  0  0  0  0  0  0  0  0  0  0  0
    2.2950   -0.6315    0.8658 C   0  0  0  0  0  0  0  0  0  0  0  0
    3.6106   -0.4570    0.3635 C   0  0  0  0  0  0  0  0  0  0  0  0
    4.6773   -0.8116    1.1926 C   0  0  0  0  0  0  0  0  0  0  0  0
    4.3493   -1.3075    2.4563 C   0  0  0  0  0  0  0  0  0  0  0  0
    2.9970   -1.4245    2.8313 C   0  0  0  0  0  0  0  0  0  0  0  0
    1.9551   -1.0952    2.0595 N   0  0  0  0  0  0  0  0  0  0  0  0
    2.6129   -1.9484    4.2034 C   0  0  0  0  0  0  0  0  0  0  0  0
    1.8481   -3.0588    4.1180 F   0  0  0  0  0  0  0  0  0  0  0  0
    3.7059   -2.2670    4.9406 F   0  0  0  0  0  0  0  0  0  0  0  0
    1.9107   -1.0284    4.9048 F   0  0  0  0  0  0  0  0  0  0  0  0
    3.5651    0.0658   -0.9170 N   0  0  0  0  0  0  0  0  0  0  0  0
    2.2847    0.1982   -1.1755 C   0  0  0  0  0  0  0  0  0  0  0  0
    1.7719    0.7605   -2.4817 C   0  0  0  0  0  0  0  0  0  0  0  0
    2.7560    1.3552   -3.1646 F   0  0  0  0  0  0  0  0  0  0  0  0
    1.2522   -0.2162   -3.2707 F   0  0  0  0  0  0  0  0  0  0  0  0
    0.7913    1.6690   -2.2716 F   0  0  0  0  0  0  0  0  0  0  0  0
   -3.5927   -1.3156   -2.4815 H   0  0  0  0  0  0  0  0  0  0  0  0
   -3.5162   -2.6547   -1.3474 H   0  0  0  0  0  0  0  0  0  0  0  0
   -2.2480   -2.4728   -2.5804 H   0  0  0  0  0  0  0  0  0  0  0  0
   -0.1735   -1.6321   -1.7003 H   0  0  0  0  0  0  0  0  0  0  0  0
   -0.0375    1.1582    1.5729 H   0  0  0  0  0  0  0  0  0  0  0  0
   -5.7757    1.3592    2.2879 H   0  0  0  0  0  0  0  0  0  0  0  0
    5.7082   -0.7038    0.8691 H   0  0  0  0  0  0  0  0  0  0  0  0
    5.1247   -1.6009    3.1537 H   0  0  0  0  0  0  0  0  0  0  0  0
  1  2  1  0
  1 29  1  0
  1 30  1  0
  1 31  1  0
  2  3  2  0
  2  7  1  0
  3  4  1  0
  3 32  1  0
  4  5  2  0
  4 12  1  0
  5  6  1  0
  5 33  1  0
  6  7  2  0
  6 11  1  0
  7  8  1  0
  8  9  2  0
  9 10  1  0
  9 11  1  0
 10 34  1  0
 12 13  1  0
 12 24  1  0
 13 14  1  0
 13 18  2  0
 14 15  2  0
 14 23  1  0
 15 16  1  0
 15 35  1  0
 16 17  2  0
 16 36  1  0
 17 18  1  0
 17 19  1  0
 19 20  1  0
 19 21  1  0
 19 22  1  0
 23 24  2  0
 24 25  1  0
 25 26  1  0
 25 27  1  0
 25 28  1  0
M  END
>  <group_name>  (1) 
JNS

>  <molecule_index>  (1) 
01548

>  <conformer_index>  (1) 
06

>  <method>  (1) 
b3lyp-d3bj

>  <basis>  (1) 
dzvp

>  <program>  (1) 
psi4

>  <initial_energy>  (1) 
-1196153.7650682975 kilocalorie / mole

>  <final_energy>  (1) 
-1196228.858353439 kilocalorie / mole

$$$$
