JNS-01155-02
     RDKit          3D

 46 50  0  0  0  0  0  0  0  0999 V2000
   -0.6354    0.5373    0.5613 F   0  0  0  0  0  0  0  0  0  0  0  0
    0.0296    0.1493   -0.5618 C   0  0  0  0  0  0  0  0  0  0  0  0
   -0.2317    1.0532   -1.5165 F   0  0  0  0  0  0  0  0  0  0  0  0
   -0.5034   -1.0354   -0.9438 F   0  0  0  0  0  0  0  0  0  0  0  0
    1.5116    0.0354   -0.3188 C   0  0  0  0  0  0  0  0  0  0  0  0
    2.3804    0.8941   -0.7991 N   0  0  0  0  0  0  0  0  0  0  0  0
    3.6178    0.4400   -0.3690 C   0  0  0  0  0  0  0  0  0  0  0  0
    3.4544   -0.7414    0.3907 C   0  0  0  0  0  0  0  0  0  0  0  0
    4.3921   -1.4959    0.9565 N   0  0  0  0  0  0  0  0  0  0  0  0
    5.6229   -1.0150    0.7467 C   0  0  0  0  0  0  0  0  0  0  0  0
    5.9482    0.1375    0.0265 C   0  0  0  0  0  0  0  0  0  0  0  0
    4.9380    0.9343   -0.5780 C   0  0  0  0  0  0  0  0  0  0  0  0
    5.2453    2.0508   -1.2942 N   0  0  0  0  0  0  0  0  0  0  0  0
    6.6463    2.4235   -1.5193 C   0  0  0  0  0  0  0  0  0  0  0  0
    6.7247    3.5656   -2.5270 C   0  0  0  0  0  0  0  0  0  0  0  0
    6.0093    4.7205   -2.1042 O   0  0  0  0  0  0  0  0  0  0  0  0
    4.7254    4.4315   -1.5290 C   0  0  0  0  0  0  0  0  0  0  0  0
    4.2484    3.0076   -1.7923 C   0  0  0  0  0  0  0  0  0  0  0  0
    6.7250   -1.8532    1.3723 C   0  0  0  0  0  0  0  0  0  0  0  0
    6.7500   -3.1033    0.8532 F   0  0  0  0  0  0  0  0  0  0  0  0
    7.9552   -1.3135    1.1664 F   0  0  0  0  0  0  0  0  0  0  0  0
    6.5634   -1.9756    2.7081 F   0  0  0  0  0  0  0  0  0  0  0  0
    2.0837   -0.9842    0.4197 N   0  0  0  0  0  0  0  0  0  0  0  0
    1.4562   -2.0800    1.1003 C   0  0  0  0  0  0  0  0  0  0  0  0
    1.7255   -3.3730    0.6798 C   0  0  0  0  0  0  0  0  0  0  0  0
    1.1223   -4.4293    1.3833 C   0  0  0  0  0  0  0  0  0  0  0  0
    0.2656   -4.1476    2.4818 C   0  0  0  0  0  0  0  0  0  0  0  0
   -0.1591   -5.3664    2.9383 N   0  0  0  0  0  0  0  0  0  0  0  0
    0.3596   -6.4036    2.2214 N   0  0  0  0  0  0  0  0  0  0  0  0
    1.1262   -5.8587    1.2900 C   0  0  0  0  0  0  0  0  0  0  0  0
    0.0051   -2.8347    2.9091 C   0  0  0  0  0  0  0  0  0  0  0  0
    0.6193   -1.8077    2.2093 C   0  0  0  0  0  0  0  0  0  0  0  0
    6.9885    0.4168   -0.0504 H   0  0  0  0  0  0  0  0  0  0  0  0
    7.1202    2.7286   -0.5759 H   0  0  0  0  0  0  0  0  0  0  0  0
    7.2049    1.5672   -1.9166 H   0  0  0  0  0  0  0  0  0  0  0  0
    6.3647    3.2225   -3.5076 H   0  0  0  0  0  0  0  0  0  0  0  0
    7.7668    3.8730   -2.6437 H   0  0  0  0  0  0  0  0  0  0  0  0
    4.7821    4.6016   -0.4456 H   0  0  0  0  0  0  0  0  0  0  0  0
    4.0060    5.1408   -1.9515 H   0  0  0  0  0  0  0  0  0  0  0  0
    4.0701    2.8489   -2.8633 H   0  0  0  0  0  0  0  0  0  0  0  0
    3.2989    2.8457   -1.2883 H   0  0  0  0  0  0  0  0  0  0  0  0
    2.3887   -3.5514   -0.1604 H   0  0  0  0  0  0  0  0  0  0  0  0
   -0.7747   -5.5694    3.7134 H   0  0  0  0  0  0  0  0  0  0  0  0
    1.6542   -6.4923    0.5885 H   0  0  0  0  0  0  0  0  0  0  0  0
   -0.6401   -2.6231    3.7568 H   0  0  0  0  0  0  0  0  0  0  0  0
    0.4632   -0.7771    2.5097 H   0  0  0  0  0  0  0  0  0  0  0  0
  1  2  1  0
  2  3  1  0
  2  4  1  0
  2  5  1  0
  5  6  2  0
  5 23  1  0
  6  7  1  0
  7  8  2  0
  7 12  1  0
  8  9  1  0
  8 23  1  0
  9 10  2  0
 10 11  1  0
 10 19  1  0
 11 12  2  0
 11 33  1  0
 12 13  1  0
 13 14  1  0
 13 18  1  0
 14 15  1  0
 14 34  1  0
 14 35  1  0
 15 16  1  0
 15 36  1  0
 15 37  1  0
 16 17  1  0
 17 18  1  0
 17 38  1  0
 17 39  1  0
 18 40  1  0
 18 41  1  0
 19 20  1  0
 19 21  1  0
 19 22  1  0
 23 24  1  0
 24 25  2  0
 24 32  1  0
 25 26  1  0
 25 42  1  0
 26 27  2  0
 26 30  1  0
 27 28  1  0
 27 31  1  0
 28 29  1  0
 28 43  1  0
 29 30  2  0
 30 44  1  0
 31 32  2  0
 31 45  1  0
 32 46  1  0
M  END
>  <group_name>  (1) 
JNS

>  <molecule_index>  (1) 
01155

>  <conformer_index>  (1) 
02

>  <method>  (1) 
b3lyp-d3bj

>  <basis>  (1) 
dzvp

>  <program>  (1) 
psi4

>  <initial_energy>  (1) 
-1089020.9926505738 kilocalorie / mole

>  <final_energy>  (1) 
-1089098.5858127573 kilocalorie / mole

$$$$
