JNS-01792-00
     RDKit          3D

 40 44  0  0  0  0  0  0  0  0999 V2000
   -0.2198   -0.4578   -2.1124 F   0  0  0  0  0  0  0  0  0  0  0  0
    0.2030   -1.0560   -0.9686 C   0  0  0  0  0  0  0  0  0  0  0  0
   -0.0150   -2.3861   -1.1126 F   0  0  0  0  0  0  0  0  0  0  0  0
   -0.6109   -0.6290    0.0267 F   0  0  0  0  0  0  0  0  0  0  0  0
    1.6574   -0.7513   -0.6795 C   0  0  0  0  0  0  0  0  0  0  0  0
    2.1364   -1.3487    0.4185 N   0  0  0  0  0  0  0  0  0  0  0  0
    3.4082   -1.0916    0.6871 C   0  0  0  0  0  0  0  0  0  0  0  0
    4.2849   -0.2562   -0.0724 C   0  0  0  0  0  0  0  0  0  0  0  0
    5.5565   -0.2845    0.5863 C   0  0  0  0  0  0  0  0  0  0  0  0
    5.4348   -1.1004    1.6933 C   0  0  0  0  0  0  0  0  0  0  0  0
    6.4376   -1.4791    2.7082 C   0  0  0  0  0  0  0  0  0  0  0  0
    7.8152   -0.8581    2.6983 C   0  0  0  0  0  0  0  0  0  0  0  0
    6.8478   -0.4843    3.7927 C   0  0  0  0  0  0  0  0  0  0  0  0
    4.1243   -1.5927    1.7663 N   0  0  0  0  0  0  0  0  0  0  0  0
    3.5865   -2.4445    2.7754 C   0  0  0  0  0  0  0  0  0  0  0  0
    3.6497   -2.0579    4.1257 C   0  0  0  0  0  0  0  0  0  0  0  0
    3.1159   -2.8992    5.0889 C   0  0  0  0  0  0  0  0  0  0  0  0
    2.5019   -4.1062    4.7051 C   0  0  0  0  0  0  0  0  0  0  0  0
    2.0340   -4.7674    5.8501 N   0  0  0  0  0  0  0  0  0  0  0  0
    2.2951   -4.0597    7.0167 C   0  0  0  0  0  0  0  0  0  0  0  0
    1.9925   -4.4115    8.1439 O   0  0  0  0  0  0  0  0  0  0  0  0
    3.0266   -2.7759    6.5897 C   0  0  0  0  0  0  0  0  0  0  0  0
    2.4157   -4.4926    3.3710 C   0  0  0  0  0  0  0  0  0  0  0  0
    2.9740   -3.6462    2.4057 C   0  0  0  0  0  0  0  0  0  0  0  0
    3.7437    0.3475   -1.2136 C   0  0  0  0  0  0  0  0  0  0  0  0
    2.4045    0.0919   -1.5186 C   0  0  0  0  0  0  0  0  0  0  0  0
    6.4654    0.2064    0.2661 H   0  0  0  0  0  0  0  0  0  0  0  0
    6.3792   -2.5141    3.0341 H   0  0  0  0  0  0  0  0  0  0  0  0
    8.6508   -1.5048    2.9471 H   0  0  0  0  0  0  0  0  0  0  0  0
    8.0352   -0.1124    1.9417 H   0  0  0  0  0  0  0  0  0  0  0  0
    6.3964    0.5024    3.7486 H   0  0  0  0  0  0  0  0  0  0  0  0
    7.0152   -0.8727    4.7933 H   0  0  0  0  0  0  0  0  0  0  0  0
    4.1062   -1.1111    4.3964 H   0  0  0  0  0  0  0  0  0  0  0  0
    1.5399   -5.6511    5.8602 H   0  0  0  0  0  0  0  0  0  0  0  0
    2.4508   -1.9071    6.9243 H   0  0  0  0  0  0  0  0  0  0  0  0
    4.0004   -2.7336    7.0877 H   0  0  0  0  0  0  0  0  0  0  0  0
    1.9320   -5.4196    3.0763 H   0  0  0  0  0  0  0  0  0  0  0  0
    2.9202   -3.9119    1.3558 H   0  0  0  0  0  0  0  0  0  0  0  0
    4.3415    0.9962   -1.8484 H   0  0  0  0  0  0  0  0  0  0  0  0
    1.9389    0.5333   -2.3919 H   0  0  0  0  0  0  0  0  0  0  0  0
  1  2  1  0
  2  3  1  0
  2  4  1  0
  2  5  1  0
  5  6  2  0
  5 26  1  0
  6  7  1  0
  7  8  2  0
  7 14  1  0
  8  9  1  0
  8 25  1  0
  9 10  2  0
  9 27  1  0
 10 11  1  0
 10 14  1  0
 11 12  1  0
 11 13  1  0
 11 28  1  0
 12 13  1  0
 12 29  1  0
 12 30  1  0
 13 31  1  0
 13 32  1  0
 14 15  1  0
 15 16  2  0
 15 24  1  0
 16 17  1  0
 16 33  1  0
 17 18  2  0
 17 22  1  0
 18 19  1  0
 18 23  1  0
 19 20  1  0
 19 34  1  0
 20 21  2  0
 20 22  1  0
 22 35  1  0
 22 36  1  0
 23 24  2  0
 23 37  1  0
 24 38  1  0
 25 26  2  0
 25 39  1  0
 26 40  1  0
M  END
>  <group_name>  (1) 
JNS

>  <molecule_index>  (1) 
01792

>  <conformer_index>  (1) 
00

>  <method>  (1) 
b3lyp-d3bj

>  <basis>  (1) 
dzvp

>  <program>  (1) 
psi4

>  <initial_energy>  (1) 
-797982.780498572 kilocalorie / mole

>  <final_energy>  (1) 
-798015.7467035842 kilocalorie / mole

$$$$
