JNS-01594-07
     RDKit          3D

 39 42  0  0  0  0  0  0  0  0999 V2000
   -0.6836   -0.2033    0.7635 C   0  0  0  0  0  0  0  0  0  0  0  0
   -0.0296   -0.2288   -0.6354 C   0  0  0  0  0  0  0  0  0  0  0  0
   -0.3899   -1.5071   -1.4024 C   0  0  0  0  0  0  0  0  0  0  0  0
    1.4603   -0.0806   -0.4988 C   0  0  0  0  0  0  0  0  0  0  0  0
    2.3271   -1.0721   -0.5637 N   0  0  0  0  0  0  0  0  0  0  0  0
    3.5626   -0.5101   -0.2859 C   0  0  0  0  0  0  0  0  0  0  0  0
    3.4214    0.8821   -0.0428 C   0  0  0  0  0  0  0  0  0  0  0  0
    4.3800    1.7407    0.2611 N   0  0  0  0  0  0  0  0  0  0  0  0
    5.6024    1.1913    0.3343 C   0  0  0  0  0  0  0  0  0  0  0  0
    5.8847   -0.1665    0.1137 C   0  0  0  0  0  0  0  0  0  0  0  0
    4.8459   -1.0495   -0.2060 C   0  0  0  0  0  0  0  0  0  0  0  0
    6.7028    2.1708    0.6883 C   0  0  0  0  0  0  0  0  0  0  0  0
    6.8120    3.1578   -0.2312 F   0  0  0  0  0  0  0  0  0  0  0  0
    7.9132    1.5611    0.7664 F   0  0  0  0  0  0  0  0  0  0  0  0
    6.4783    2.7651    1.8848 F   0  0  0  0  0  0  0  0  0  0  0  0
    2.0628    1.1425   -0.1911 N   0  0  0  0  0  0  0  0  0  0  0  0
    1.4491    2.4247   -0.0688 C   0  0  0  0  0  0  0  0  0  0  0  0
    1.4782    3.0845    1.1511 C   0  0  0  0  0  0  0  0  0  0  0  0
    0.8797    4.3540    1.2290 C   0  0  0  0  0  0  0  0  0  0  0  0
    0.2587    4.9197    0.0827 C   0  0  0  0  0  0  0  0  0  0  0  0
   -0.2340    6.1297    0.4764 N   0  0  0  0  0  0  0  0  0  0  0  0
    0.0267    6.3918    1.7874 N   0  0  0  0  0  0  0  0  0  0  0  0
    0.6885    5.3424    2.2496 C   0  0  0  0  0  0  0  0  0  0  0  0
    0.2487    4.2416   -1.1443 C   0  0  0  0  0  0  0  0  0  0  0  0
   -0.5753    5.0492   -2.6680 Br  0  0  0  0  0  0  0  0  0  0  0  0
    0.8560    3.0014   -1.2203 C   0  0  0  0  0  0  0  0  0  0  0  0
   -1.7707   -0.2885    0.6686 H   0  0  0  0  0  0  0  0  0  0  0  0
   -0.4619    0.7261    1.2962 H   0  0  0  0  0  0  0  0  0  0  0  0
   -0.3236   -1.0427    1.3669 H   0  0  0  0  0  0  0  0  0  0  0  0
   -0.4103    0.6339   -1.1929 H   0  0  0  0  0  0  0  0  0  0  0  0
   -0.0319   -2.3924   -0.8715 H   0  0  0  0  0  0  0  0  0  0  0  0
   -1.4768   -1.5780   -1.5102 H   0  0  0  0  0  0  0  0  0  0  0  0
    0.0600   -1.5132   -2.3991 H   0  0  0  0  0  0  0  0  0  0  0  0
    6.9054   -0.5213    0.1950 H   0  0  0  0  0  0  0  0  0  0  0  0
    5.0297   -2.1055   -0.3811 H   0  0  0  0  0  0  0  0  0  0  0  0
    1.9597    2.6267    2.0090 H   0  0  0  0  0  0  0  0  0  0  0  0
   -0.7224    6.8152   -0.0841 H   0  0  0  0  0  0  0  0  0  0  0  0
    1.0099    5.3190    3.2833 H   0  0  0  0  0  0  0  0  0  0  0  0
    0.8971    2.4677   -2.1638 H   0  0  0  0  0  0  0  0  0  0  0  0
  1  2  1  0
  1 27  1  0
  1 28  1  0
  1 29  1  0
  2  3  1  0
  2  4  1  0
  2 30  1  0
  3 31  1  0
  3 32  1  0
  3 33  1  0
  4  5  2  0
  4 16  1  0
  5  6  1  0
  6  7  2  0
  6 11  1  0
  7  8  1  0
  7 16  1  0
  8  9  2  0
  9 10  1  0
  9 12  1  0
 10 11  2  0
 10 34  1  0
 11 35  1  0
 12 13  1  0
 12 14  1  0
 12 15  1  0
 16 17  1  0
 17 18  2  0
 17 26  1  0
 18 19  1  0
 18 36  1  0
 19 20  2  0
 19 23  1  0
 20 21  1  0
 20 24  1  0
 21 22  1  0
 21 37  1  0
 22 23  2  0
 23 38  1  0
 24 25  1  0
 24 26  2  0
 26 39  1  0
M  END
>  <group_name>  (1) 
JNS

>  <molecule_index>  (1) 
01594

>  <conformer_index>  (1) 
07

>  <method>  (1) 
b3lyp-d3bj

>  <basis>  (1) 
dzvp

>  <program>  (1) 
psi4

>  <initial_energy>  (1) 
-2386280.0014147023 kilocalorie / mole

>  <final_energy>  (1) 
-2386342.022444089 kilocalorie / mole

$$$$
