JNS-01681-05
     RDKit          3D

 30 33  0  0  0  0  0  0  0  0999 V2000
   -0.3277    0.1781   -1.6405 F   0  0  0  0  0  0  0  0  0  0  0  0
    0.1159   -0.4006   -0.4962 C   0  0  0  0  0  0  0  0  0  0  0  0
   -0.6442    0.0792    0.5151 F   0  0  0  0  0  0  0  0  0  0  0  0
   -0.1417   -1.7268   -0.5935 F   0  0  0  0  0  0  0  0  0  0  0  0
    1.5907   -0.1342   -0.2671 C   0  0  0  0  0  0  0  0  0  0  0  0
    2.0866   -0.7104    0.8362 N   0  0  0  0  0  0  0  0  0  0  0  0
    3.3759   -0.4801    1.0360 C   0  0  0  0  0  0  0  0  0  0  0  0
    4.2396    0.2938    0.2122 C   0  0  0  0  0  0  0  0  0  0  0  0
    3.6914    0.8800   -0.9290 C   0  0  0  0  0  0  0  0  0  0  0  0
    2.3315    0.6537   -1.1648 C   0  0  0  0  0  0  0  0  0  0  0  0
    5.5223    0.3071    0.7402 N   0  0  0  0  0  0  0  0  0  0  0  0
    5.4375   -0.4214    1.8303 C   0  0  0  0  0  0  0  0  0  0  0  0
    4.1737   -0.9312    2.0832 N   0  0  0  0  0  0  0  0  0  0  0  0
    3.7834   -1.7187    3.2058 C   0  0  0  0  0  0  0  0  0  0  0  0
    4.2558   -1.3868    4.4687 C   0  0  0  0  0  0  0  0  0  0  0  0
    3.8876   -2.2082    5.5506 C   0  0  0  0  0  0  0  0  0  0  0  0
    3.0339   -3.3212    5.3307 C   0  0  0  0  0  0  0  0  0  0  0  0
    2.8537   -3.8960    6.5609 N   0  0  0  0  0  0  0  0  0  0  0  0
    3.5216   -3.2374    7.5482 N   0  0  0  0  0  0  0  0  0  0  0  0
    4.1433   -2.2266    6.9595 C   0  0  0  0  0  0  0  0  0  0  0  0
    2.5418   -3.6415    4.0536 C   0  0  0  0  0  0  0  0  0  0  0  0
    2.9310   -2.8344    2.9974 C   0  0  0  0  0  0  0  0  0  0  0  0
    4.2947    1.4827   -1.6013 H   0  0  0  0  0  0  0  0  0  0  0  0
    1.8432    1.0777   -2.0342 H   0  0  0  0  0  0  0  0  0  0  0  0
    6.2646   -0.6487    2.4920 H   0  0  0  0  0  0  0  0  0  0  0  0
    4.8743   -0.5064    4.6170 H   0  0  0  0  0  0  0  0  0  0  0  0
    2.2999   -4.7059    6.8028 H   0  0  0  0  0  0  0  0  0  0  0  0
    4.7480   -1.5501    7.5506 H   0  0  0  0  0  0  0  0  0  0  0  0
    1.8827   -4.4889    3.8888 H   0  0  0  0  0  0  0  0  0  0  0  0
    2.5722   -3.0405    1.9957 H   0  0  0  0  0  0  0  0  0  0  0  0
  1  2  1  0
  2  3  1  0
  2  4  1  0
  2  5  1  0
  5  6  2  0
  5 10  1  0
  6  7  1  0
  7  8  2  0
  7 13  1  0
  8  9  1  0
  8 11  1  0
  9 10  2  0
  9 23  1  0
 10 24  1  0
 11 12  2  0
 12 13  1  0
 12 25  1  0
 13 14  1  0
 14 15  2  0
 14 22  1  0
 15 16  1  0
 15 26  1  0
 16 17  2  0
 16 20  1  0
 17 18  1  0
 17 21  1  0
 18 19  1  0
 18 27  1  0
 19 20  2  0
 20 28  1  0
 21 22  2  0
 21 29  1  0
 22 30  1  0
M  END
>  <group_name>  (1) 
JNS

>  <molecule_index>  (1) 
01681

>  <conformer_index>  (1) 
05

>  <method>  (1) 
b3lyp-d3bj

>  <basis>  (1) 
dzvp

>  <program>  (1) 
psi4

>  <initial_energy>  (1) 
-697635.2819779483 kilocalorie / mole

>  <final_energy>  (1) 
-697670.4562709809 kilocalorie / mole

$$$$
