JNS-01358-01
     RDKit          3D

 41 45  0  0  0  0  0  0  0  0999 V2000
   -3.4123    0.5409    0.9485 F   0  0  0  0  0  0  0  0  0  0  0  0
   -2.4595    0.1138    0.0924 C   0  0  0  0  0  0  0  0  0  0  0  0
   -2.8858   -0.4467   -1.0168 N   0  0  0  0  0  0  0  0  0  0  0  0
   -1.9372   -0.8848   -1.8659 C   0  0  0  0  0  0  0  0  0  0  0  0
   -0.5732   -0.7607   -1.6244 C   0  0  0  0  0  0  0  0  0  0  0  0
   -0.1505   -0.1405   -0.4339 C   0  0  0  0  0  0  0  0  0  0  0  0
   -1.1284    0.3058    0.4627 C   0  0  0  0  0  0  0  0  0  0  0  0
    1.2919   -0.0320   -0.1690 C   0  0  0  0  0  0  0  0  0  0  0  0
    2.1704   -0.8947   -0.6565 N   0  0  0  0  0  0  0  0  0  0  0  0
    3.3944   -0.4970   -0.1588 C   0  0  0  0  0  0  0  0  0  0  0  0
    3.2377    0.6576    0.6526 C   0  0  0  0  0  0  0  0  0  0  0  0
    4.1910    1.3195    1.2892 N   0  0  0  0  0  0  0  0  0  0  0  0
    5.4160    0.8021    1.1268 C   0  0  0  0  0  0  0  0  0  0  0  0
    5.7120   -0.3377    0.3571 C   0  0  0  0  0  0  0  0  0  0  0  0
    4.6842   -1.0126   -0.3078 C   0  0  0  0  0  0  0  0  0  0  0  0
    6.5096    1.5562    1.8583 C   0  0  0  0  0  0  0  0  0  0  0  0
    7.7203    0.9669    1.6953 F   0  0  0  0  0  0  0  0  0  0  0  0
    6.6207    2.8296    1.4146 F   0  0  0  0  0  0  0  0  0  0  0  0
    6.2688    1.6163    3.1889 F   0  0  0  0  0  0  0  0  0  0  0  0
    1.8783    0.9480    0.6321 N   0  0  0  0  0  0  0  0  0  0  0  0
    1.2945    2.1248    1.1966 C   0  0  0  0  0  0  0  0  0  0  0  0
    1.4051    2.3441    2.5793 C   0  0  0  0  0  0  0  0  0  0  0  0
    0.8419    3.4901    3.1149 C   0  0  0  0  0  0  0  0  0  0  0  0
    0.1696    4.4027    2.2772 C   0  0  0  0  0  0  0  0  0  0  0  0
   -0.3091    5.4661    3.0496 N   0  0  0  0  0  0  0  0  0  0  0  0
    0.0090    5.3300    4.3987 C   0  0  0  0  0  0  0  0  0  0  0  0
   -0.2929    6.1147    5.2788 O   0  0  0  0  0  0  0  0  0  0  0  0
    0.7966    4.0163    4.5268 C   0  0  0  0  0  0  0  0  0  0  0  0
    0.0612    4.1965    0.9042 C   0  0  0  0  0  0  0  0  0  0  0  0
    0.6475    3.0441    0.3676 C   0  0  0  0  0  0  0  0  0  0  0  0
   -2.2967   -1.3542   -2.7789 H   0  0  0  0  0  0  0  0  0  0  0  0
    0.1586   -1.1347   -2.3310 H   0  0  0  0  0  0  0  0  0  0  0  0
   -0.8951    0.7723    1.4109 H   0  0  0  0  0  0  0  0  0  0  0  0
    6.7363   -0.6843    0.2871 H   0  0  0  0  0  0  0  0  0  0  0  0
    4.8770   -1.8947   -0.9110 H   0  0  0  0  0  0  0  0  0  0  0  0
    1.9304    1.6261    3.2014 H   0  0  0  0  0  0  0  0  0  0  0  0
   -0.8320    6.2604    2.7013 H   0  0  0  0  0  0  0  0  0  0  0  0
    0.2823    3.3529    5.2289 H   0  0  0  0  0  0  0  0  0  0  0  0
    1.7870    4.2275    4.9419 H   0  0  0  0  0  0  0  0  0  0  0  0
   -0.4500    4.9057    0.2598 H   0  0  0  0  0  0  0  0  0  0  0  0
    0.5934    2.8555   -0.7001 H   0  0  0  0  0  0  0  0  0  0  0  0
  1  2  1  0
  2  3  2  0
  2  7  1  0
  3  4  1  0
  4  5  2  0
  4 31  1  0
  5  6  1  0
  5 32  1  0
  6  7  2  0
  6  8  1  0
  7 33  1  0
  8  9  2  0
  8 20  1  0
  9 10  1  0
 10 11  2  0
 10 15  1  0
 11 12  1  0
 11 20  1  0
 12 13  2  0
 13 14  1  0
 13 16  1  0
 14 15  2  0
 14 34  1  0
 15 35  1  0
 16 17  1  0
 16 18  1  0
 16 19  1  0
 20 21  1  0
 21 22  2  0
 21 30  1  0
 22 23  1  0
 22 36  1  0
 23 24  2  0
 23 28  1  0
 24 25  1  0
 24 29  1  0
 25 26  1  0
 25 37  1  0
 26 27  2  0
 26 28  1  0
 28 38  1  0
 28 39  1  0
 29 30  2  0
 29 40  1  0
 30 41  1  0
M  END
>  <group_name>  (1) 
JNS

>  <molecule_index>  (1) 
01358

>  <conformer_index>  (1) 
01

>  <method>  (1) 
b3lyp-d3bj

>  <basis>  (1) 
dzvp

>  <program>  (1) 
psi4

>  <initial_energy>  (1) 
-952176.3018669039 kilocalorie / mole

>  <final_energy>  (1) 
-952214.8437190397 kilocalorie / mole

$$$$
