JNS-00690-01
     RDKit          3D

 38 42  0  0  0  0  0  0  0  0999 V2000
   -0.8382   -1.1884    0.9390 O   0  0  0  0  0  0  0  0  0  0  0  0
   -0.1409   -0.6031   -0.1365 C   0  0  0  0  0  0  0  0  0  0  0  0
   -0.6850   -0.7918   -1.5323 C   0  0  0  0  0  0  0  0  0  0  0  0
   -0.8744    0.5303   -0.8218 C   0  0  0  0  0  0  0  0  0  0  0  0
    1.3333   -0.4999    0.0306 C   0  0  0  0  0  0  0  0  0  0  0  0
    2.1977   -0.6540   -0.9578 N   0  0  0  0  0  0  0  0  0  0  0  0
    3.4446   -0.4706   -0.3885 C   0  0  0  0  0  0  0  0  0  0  0  0
    3.3108   -0.2073    1.0009 C   0  0  0  0  0  0  0  0  0  0  0  0
    4.2900    0.0002    1.8664 N   0  0  0  0  0  0  0  0  0  0  0  0
    5.5175   -0.0462    1.3287 C   0  0  0  0  0  0  0  0  0  0  0  0
    5.7910   -0.2934   -0.0272 C   0  0  0  0  0  0  0  0  0  0  0  0
    4.7346   -0.5133   -0.9180 C   0  0  0  0  0  0  0  0  0  0  0  0
    6.6391    0.1890    2.3203 C   0  0  0  0  0  0  0  0  0  0  0  0
    7.8583    0.1125    1.7272 F   0  0  0  0  0  0  0  0  0  0  0  0
    6.6242   -0.7261    3.3189 F   0  0  0  0  0  0  0  0  0  0  0  0
    6.5527    1.4095    2.8980 F   0  0  0  0  0  0  0  0  0  0  0  0
    1.9410   -0.2196    1.2527 N   0  0  0  0  0  0  0  0  0  0  0  0
    1.3349    0.1043    2.5084 C   0  0  0  0  0  0  0  0  0  0  0  0
    1.7193   -0.5899    3.6443 C   0  0  0  0  0  0  0  0  0  0  0  0
    1.1298   -0.2257    4.8685 C   0  0  0  0  0  0  0  0  0  0  0  0
    0.1696    0.8196    4.9073 C   0  0  0  0  0  0  0  0  0  0  0  0
   -0.2120    0.9210    6.2190 N   0  0  0  0  0  0  0  0  0  0  0  0
    0.4307    0.0257    7.0213 N   0  0  0  0  0  0  0  0  0  0  0  0
    1.2351   -0.6650    6.2274 C   0  0  0  0  0  0  0  0  0  0  0  0
   -0.2082    1.5279    3.7534 C   0  0  0  0  0  0  0  0  0  0  0  0
    0.3943    1.1623    2.5614 C   0  0  0  0  0  0  0  0  0  0  0  0
   -0.6479   -2.1411    0.9328 H   0  0  0  0  0  0  0  0  0  0  0  0
    0.0344   -0.8451   -2.3414 H   0  0  0  0  0  0  0  0  0  0  0  0
   -1.5512   -1.4408   -1.6132 H   0  0  0  0  0  0  0  0  0  0  0  0
   -0.2885    1.3804   -1.1569 H   0  0  0  0  0  0  0  0  0  0  0  0
   -1.8558    0.7570   -0.4165 H   0  0  0  0  0  0  0  0  0  0  0  0
    6.8182   -0.3149   -0.3716 H   0  0  0  0  0  0  0  0  0  0  0  0
    4.9091   -0.7097   -1.9718 H   0  0  0  0  0  0  0  0  0  0  0  0
    2.4602   -1.3801    3.5842 H   0  0  0  0  0  0  0  0  0  0  0  0
   -0.8746    1.5601    6.6350 H   0  0  0  0  0  0  0  0  0  0  0  0
    1.8606   -1.4453    6.6428 H   0  0  0  0  0  0  0  0  0  0  0  0
   -0.9347    2.3346    3.7865 H   0  0  0  0  0  0  0  0  0  0  0  0
    0.1418    1.6862    1.6456 H   0  0  0  0  0  0  0  0  0  0  0  0
  1  2  1  0
  1 27  1  0
  2  3  1  0
  2  4  1  0
  2  5  1  0
  3  4  1  0
  3 28  1  0
  3 29  1  0
  4 30  1  0
  4 31  1  0
  5  6  2  0
  5 17  1  0
  6  7  1  0
  7  8  2  0
  7 12  1  0
  8  9  1  0
  8 17  1  0
  9 10  2  0
 10 11  1  0
 10 13  1  0
 11 12  2  0
 11 32  1  0
 12 33  1  0
 13 14  1  0
 13 15  1  0
 13 16  1  0
 17 18  1  0
 18 19  2  0
 18 26  1  0
 19 20  1  0
 19 34  1  0
 20 21  2  0
 20 24  1  0
 21 22  1  0
 21 25  1  0
 22 23  1  0
 22 35  1  0
 23 24  2  0
 24 36  1  0
 25 26  2  0
 25 37  1  0
 26 38  1  0
M  END
>  <group_name>  (1) 
JNS

>  <molecule_index>  (1) 
00690

>  <conformer_index>  (1) 
01

>  <method>  (1) 
b3lyp-d3bj

>  <basis>  (1) 
dzvp

>  <program>  (1) 
psi4

>  <initial_energy>  (1) 
-818080.7172293805 kilocalorie / mole

>  <final_energy>  (1) 
-818124.755351956 kilocalorie / mole

$$$$
