JNS-02466-03
     RDKit          3D

 53 56  0  0  0  0  0  0  0  0999 V2000
    0.2506    0.2246    0.1112 C   0  0  0  0  0  0  0  0  0  0  0  0
    0.0041   -1.2190   -0.3535 C   0  0  2  0  0  0  0  0  0  0  0  0
    1.1913   -1.9400   -0.8408 N   0  0  0  0  0  0  0  0  0  0  0  0
    1.7815   -1.3905   -2.0721 C   0  0  0  0  0  0  0  0  0  0  0  0
    3.1880   -1.9681   -2.3133 C   0  0  0  0  0  0  0  0  0  0  0  0
    3.3016   -3.4000   -1.7800 C   0  0  0  0  0  0  0  0  0  0  0  0
    3.0077   -3.4712   -0.2547 C   0  0  2  0  0  0  0  0  0  0  0  0
    2.1924   -2.2248    0.1775 C   0  0  0  0  0  0  0  0  0  0  0  0
    4.2317   -3.6172    0.6206 C   0  0  0  0  0  0  0  0  0  0  0  0
    4.2166   -4.4787    1.7261 C   0  0  0  0  0  0  0  0  0  0  0  0
    5.3527   -4.5499    2.5291 C   0  0  0  0  0  0  0  0  0  0  0  0
    6.4695   -3.8493    2.3243 N   0  0  0  0  0  0  0  0  0  0  0  0
    6.4980   -3.0169    1.2717 C   0  0  0  0  0  0  0  0  0  0  0  0
    7.7727   -2.2380    1.0684 C   0  0  0  0  0  0  0  0  0  0  0  0
    5.4020   -2.8795    0.4076 C   0  0  0  0  0  0  0  0  0  0  0  0
    5.4026   -5.4740    3.7333 C   0  0  0  0  0  0  0  0  0  0  0  0
    5.6540   -4.7957    4.8753 F   0  0  0  0  0  0  0  0  0  0  0  0
    6.3673   -6.4135    3.6016 F   0  0  0  0  0  0  0  0  0  0  0  0
    4.2267   -6.1324    3.9100 F   0  0  0  0  0  0  0  0  0  0  0  0
   -1.1108   -1.3270   -1.3921 C   0  0  0  0  0  0  0  0  0  0  0  0
   -1.7933   -0.2170   -1.7035 N   0  0  0  0  0  0  0  0  0  0  0  0
   -2.7771   -0.2872   -2.5884 C   0  0  0  0  0  0  0  0  0  0  0  0
   -3.1321   -1.4784   -3.2501 C   0  0  0  0  0  0  0  0  0  0  0  0
   -4.1286   -1.5380   -4.1983 O   0  0  0  0  0  0  0  0  0  0  0  0
   -4.5106   -0.2483   -4.6924 C   0  0  0  0  0  0  0  0  0  0  0  0
   -4.6724    0.7264   -3.5386 C   0  0  0  0  0  0  0  0  0  0  0  0
   -3.4312    0.8925   -2.8414 O   0  0  0  0  0  0  0  0  0  0  0  0
   -2.4340   -2.6380   -2.9182 C   0  0  0  0  0  0  0  0  0  0  0  0
   -1.4124   -2.5660   -1.9734 C   0  0  0  0  0  0  0  0  0  0  0  0
    1.0532    0.2458    0.8553 H   0  0  0  0  0  0  0  0  0  0  0  0
   -0.6540    0.6357    0.5650 H   0  0  0  0  0  0  0  0  0  0  0  0
    0.5180    0.8840   -0.7174 H   0  0  0  0  0  0  0  0  0  0  0  0
   -0.3362   -1.7887    0.5223 H   0  0  0  0  0  0  0  0  0  0  0  0
    1.8459   -0.2912   -2.0471 H   0  0  0  0  0  0  0  0  0  0  0  0
    1.1232   -1.6512   -2.9082 H   0  0  0  0  0  0  0  0  0  0  0  0
    3.9369   -1.3317   -1.8291 H   0  0  0  0  0  0  0  0  0  0  0  0
    3.4107   -1.9399   -3.3849 H   0  0  0  0  0  0  0  0  0  0  0  0
    2.5742   -4.0275   -2.3045 H   0  0  0  0  0  0  0  0  0  0  0  0
    4.2903   -3.8155   -1.9987 H   0  0  0  0  0  0  0  0  0  0  0  0
    2.3678   -4.3403   -0.0752 H   0  0  0  0  0  0  0  0  0  0  0  0
    1.6898   -2.4334    1.1269 H   0  0  0  0  0  0  0  0  0  0  0  0
    2.8742   -1.3772    0.3672 H   0  0  0  0  0  0  0  0  0  0  0  0
    3.3430   -5.0815    1.9511 H   0  0  0  0  0  0  0  0  0  0  0  0
    7.9830   -1.6248    1.9502 H   0  0  0  0  0  0  0  0  0  0  0  0
    8.6165   -2.9236    0.9437 H   0  0  0  0  0  0  0  0  0  0  0  0
    7.7155   -1.5868    0.1925 H   0  0  0  0  0  0  0  0  0  0  0  0
    5.4763   -2.1965   -0.4329 H   0  0  0  0  0  0  0  0  0  0  0  0
   -5.4532   -0.3896   -5.2258 H   0  0  0  0  0  0  0  0  0  0  0  0
   -3.7486    0.1167   -5.3929 H   0  0  0  0  0  0  0  0  0  0  0  0
   -5.4384    0.3628   -2.8421 H   0  0  0  0  0  0  0  0  0  0  0  0
   -4.9562    1.7181   -3.8976 H   0  0  0  0  0  0  0  0  0  0  0  0
   -2.6961   -3.5698   -3.4123 H   0  0  0  0  0  0  0  0  0  0  0  0
   -0.8312   -3.4408   -1.7015 H   0  0  0  0  0  0  0  0  0  0  0  0
  1  2  1  0
  1 30  1  0
  1 31  1  0
  1 32  1  0
  2  3  1  0
  2 20  1  0
  2 33  1  1
  3  4  1  0
  3  8  1  0
  4  5  1  0
  4 34  1  0
  4 35  1  0
  5  6  1  0
  5 36  1  0
  5 37  1  0
  6  7  1  0
  6 38  1  0
  6 39  1  0
  7  8  1  0
  7  9  1  0
  7 40  1  6
  8 41  1  0
  8 42  1  0
  9 10  2  0
  9 15  1  0
 10 11  1  0
 10 43  1  0
 11 12  2  0
 11 16  1  0
 12 13  1  0
 13 14  1  0
 13 15  2  0
 14 44  1  0
 14 45  1  0
 14 46  1  0
 15 47  1  0
 16 17  1  0
 16 18  1  0
 16 19  1  0
 20 21  2  0
 20 29  1  0
 21 22  1  0
 22 23  2  0
 22 27  1  0
 23 24  1  0
 23 28  1  0
 24 25  1  0
 25 26  1  0
 25 48  1  0
 25 49  1  0
 26 27  1  0
 26 50  1  0
 26 51  1  0
 28 29  2  0
 28 52  1  0
 29 53  1  0
M  END
>  <group_name>  (1) 
JNS

>  <molecule_index>  (1) 
02466

>  <conformer_index>  (1) 
03

>  <method>  (1) 
b3lyp-d3bj

>  <basis>  (1) 
dzvp

>  <program>  (1) 
psi4

>  <initial_energy>  (1) 
-896789.8949897261 kilocalorie / mole

>  <final_energy>  (1) 
-896841.5080533549 kilocalorie / mole

$$$$
