JNS-01681-01
     RDKit          3D

 30 33  0  0  0  0  0  0  0  0999 V2000
   -0.5214    0.5517   -1.0376 F   0  0  0  0  0  0  0  0  0  0  0  0
    0.0307   -0.0919    0.0215 C   0  0  0  0  0  0  0  0  0  0  0  0
   -0.4837    0.4683    1.1423 F   0  0  0  0  0  0  0  0  0  0  0  0
   -0.4031   -1.3728   -0.0183 F   0  0  0  0  0  0  0  0  0  0  0  0
    1.5445   -0.0107    0.0012 C   0  0  0  0  0  0  0  0  0  0  0  0
    2.1383   -0.5994    1.0480 N   0  0  0  0  0  0  0  0  0  0  0  0
    3.4610   -0.5259    1.0350 C   0  0  0  0  0  0  0  0  0  0  0  0
    4.2669    0.1040    0.0465 C   0  0  0  0  0  0  0  0  0  0  0  0
    3.6174    0.7056   -1.0317 C   0  0  0  0  0  0  0  0  0  0  0  0
    2.2204    0.6408   -1.0446 C   0  0  0  0  0  0  0  0  0  0  0  0
    5.6091   -0.0119    0.3759 N   0  0  0  0  0  0  0  0  0  0  0  0
    5.6141   -0.6814    1.5065 C   0  0  0  0  0  0  0  0  0  0  0  0
    4.3571   -1.0367    1.9701 N   0  0  0  0  0  0  0  0  0  0  0  0
    4.0629   -1.7832    3.1490 C   0  0  0  0  0  0  0  0  0  0  0  0
    2.9580   -1.4534    3.9236 C   0  0  0  0  0  0  0  0  0  0  0  0
    2.7130   -2.2194    5.0768 C   0  0  0  0  0  0  0  0  0  0  0  0
    3.5891   -3.2805    5.4284 C   0  0  0  0  0  0  0  0  0  0  0  0
    3.0848   -3.8079    6.5877 N   0  0  0  0  0  0  0  0  0  0  0  0
    1.9539   -3.1700    7.0017 N   0  0  0  0  0  0  0  0  0  0  0  0
    1.7207   -2.2191    6.1101 C   0  0  0  0  0  0  0  0  0  0  0  0
    4.7024   -3.6147    4.6399 C   0  0  0  0  0  0  0  0  0  0  0  0
    4.9173   -2.8626    3.4950 C   0  0  0  0  0  0  0  0  0  0  0  0
    4.1730    1.2027   -1.8213 H   0  0  0  0  0  0  0  0  0  0  0  0
    1.6532    1.0912   -1.8506 H   0  0  0  0  0  0  0  0  0  0  0  0
    6.5031   -0.9345    2.0709 H   0  0  0  0  0  0  0  0  0  0  0  0
    2.3020   -0.6407    3.6341 H   0  0  0  0  0  0  0  0  0  0  0  0
    3.4317   -4.5862    7.1304 H   0  0  0  0  0  0  0  0  0  0  0  0
    0.8619   -1.5699    6.2266 H   0  0  0  0  0  0  0  0  0  0  0  0
    5.3620   -4.4390    4.8950 H   0  0  0  0  0  0  0  0  0  0  0  0
    5.7429   -3.1166    2.8370 H   0  0  0  0  0  0  0  0  0  0  0  0
  1  2  1  0
  2  3  1  0
  2  4  1  0
  2  5  1  0
  5  6  2  0
  5 10  1  0
  6  7  1  0
  7  8  2  0
  7 13  1  0
  8  9  1  0
  8 11  1  0
  9 10  2  0
  9 23  1  0
 10 24  1  0
 11 12  2  0
 12 13  1  0
 12 25  1  0
 13 14  1  0
 14 15  2  0
 14 22  1  0
 15 16  1  0
 15 26  1  0
 16 17  2  0
 16 20  1  0
 17 18  1  0
 17 21  1  0
 18 19  1  0
 18 27  1  0
 19 20  2  0
 20 28  1  0
 21 22  2  0
 21 29  1  0
 22 30  1  0
M  END
>  <group_name>  (1) 
JNS

>  <molecule_index>  (1) 
01681

>  <conformer_index>  (1) 
01

>  <method>  (1) 
b3lyp-d3bj

>  <basis>  (1) 
dzvp

>  <program>  (1) 
psi4

>  <initial_energy>  (1) 
-697666.892834764 kilocalorie / mole

>  <final_energy>  (1) 
-697670.3035569622 kilocalorie / mole

$$$$
