JNS-01595-01
     RDKit          3D

 39 42  0  0  0  0  0  0  0  0999 V2000
   -0.3816   -1.6160   -1.2029 C   0  0  0  0  0  0  0  0  0  0  0  0
   -0.0387   -0.2911   -0.5105 C   0  0  0  0  0  0  0  0  0  0  0  0
   -0.7349   -0.1724    0.8630 C   0  0  0  0  0  0  0  0  0  0  0  0
    1.4464   -0.1382   -0.3378 C   0  0  0  0  0  0  0  0  0  0  0  0
    2.3079   -1.1349   -0.2730 N   0  0  0  0  0  0  0  0  0  0  0  0
    3.5373   -0.5508   -0.0147 C   0  0  0  0  0  0  0  0  0  0  0  0
    3.3970    0.8599    0.0795 C   0  0  0  0  0  0  0  0  0  0  0  0
    4.3515    1.7430    0.3200 N   0  0  0  0  0  0  0  0  0  0  0  0
    5.5679    1.2007    0.4856 C   0  0  0  0  0  0  0  0  0  0  0  0
    5.8485   -0.1737    0.4166 C   0  0  0  0  0  0  0  0  0  0  0  0
    4.8146   -1.0825    0.1595 C   0  0  0  0  0  0  0  0  0  0  0  0
    6.6634    2.2071    0.7733 C   0  0  0  0  0  0  0  0  0  0  0  0
    6.7745    3.1272   -0.2128 F   0  0  0  0  0  0  0  0  0  0  0  0
    6.4325    2.8834    1.9241 F   0  0  0  0  0  0  0  0  0  0  0  0
    7.8754    1.6079    0.8991 F   0  0  0  0  0  0  0  0  0  0  0  0
    2.0457    1.1070   -0.1375 N   0  0  0  0  0  0  0  0  0  0  0  0
    1.4318    2.3957   -0.1662 C   0  0  0  0  0  0  0  0  0  0  0  0
    1.3559    3.1422    0.9998 C   0  0  0  0  0  0  0  0  0  0  0  0
    0.7597    4.4106    0.9232 C   0  0  0  0  0  0  0  0  0  0  0  0
    0.2533    4.8943   -0.3121 C   0  0  0  0  0  0  0  0  0  0  0  0
   -0.2622    6.1355   -0.0445 N   0  0  0  0  0  0  0  0  0  0  0  0
   -0.1221    6.4903    1.2666 N   0  0  0  0  0  0  0  0  0  0  0  0
    0.4814    5.4710    1.8438 C   0  0  0  0  0  0  0  0  0  0  0  0
    0.8925    5.4843    3.6854 Br  0  0  0  0  0  0  0  0  0  0  0  0
    0.3418    4.1382   -1.4937 C   0  0  0  0  0  0  0  0  0  0  0  0
    0.9441    2.8928   -1.4013 C   0  0  0  0  0  0  0  0  0  0  0  0
   -0.0426   -2.4651   -0.6046 H   0  0  0  0  0  0  0  0  0  0  0  0
   -1.4651   -1.6924   -1.3385 H   0  0  0  0  0  0  0  0  0  0  0  0
    0.0979   -1.6883   -2.1832 H   0  0  0  0  0  0  0  0  0  0  0  0
   -0.3954    0.5359   -1.1344 H   0  0  0  0  0  0  0  0  0  0  0  0
   -1.8193   -0.2600    0.7411 H   0  0  0  0  0  0  0  0  0  0  0  0
   -0.5242    0.7889    1.3405 H   0  0  0  0  0  0  0  0  0  0  0  0
   -0.3974   -0.9716    1.5304 H   0  0  0  0  0  0  0  0  0  0  0  0
    6.8643   -0.5209    0.5642 H   0  0  0  0  0  0  0  0  0  0  0  0
    4.9975   -2.1514    0.1002 H   0  0  0  0  0  0  0  0  0  0  0  0
    1.7518    2.7583    1.9344 H   0  0  0  0  0  0  0  0  0  0  0  0
   -0.6893    6.7953   -0.6796 H   0  0  0  0  0  0  0  0  0  0  0  0
   -0.0286    4.5121   -2.4437 H   0  0  0  0  0  0  0  0  0  0  0  0
    1.0625    2.2804   -2.2902 H   0  0  0  0  0  0  0  0  0  0  0  0
  1  2  1  0
  1 27  1  0
  1 28  1  0
  1 29  1  0
  2  3  1  0
  2  4  1  0
  2 30  1  0
  3 31  1  0
  3 32  1  0
  3 33  1  0
  4  5  2  0
  4 16  1  0
  5  6  1  0
  6  7  2  0
  6 11  1  0
  7  8  1  0
  7 16  1  0
  8  9  2  0
  9 10  1  0
  9 12  1  0
 10 11  2  0
 10 34  1  0
 11 35  1  0
 12 13  1  0
 12 14  1  0
 12 15  1  0
 16 17  1  0
 17 18  2  0
 17 26  1  0
 18 19  1  0
 18 36  1  0
 19 20  2  0
 19 23  1  0
 20 21  1  0
 20 25  1  0
 21 22  1  0
 21 37  1  0
 22 23  2  0
 23 24  1  0
 25 26  2  0
 25 38  1  0
 26 39  1  0
M  END
>  <group_name>  (1) 
JNS

>  <molecule_index>  (1) 
01595

>  <conformer_index>  (1) 
01

>  <method>  (1) 
b3lyp-d3bj

>  <basis>  (1) 
dzvp

>  <program>  (1) 
psi4

>  <initial_energy>  (1) 
-2386294.1628894173 kilocalorie / mole

>  <final_energy>  (1) 
-2386340.036135871 kilocalorie / mole

$$$$
