JNS-01581-08
     RDKit          3D

 40 44  0  0  0  0  0  0  0  0999 V2000
   -0.4798   -0.7224   -1.5664 F   0  0  0  0  0  0  0  0  0  0  0  0
    0.1112   -1.1958   -0.4398 C   0  0  0  0  0  0  0  0  0  0  0  0
    0.0556   -2.5464   -0.4973 F   0  0  0  0  0  0  0  0  0  0  0  0
   -0.6601   -0.8105    0.6061 F   0  0  0  0  0  0  0  0  0  0  0  0
    1.5340   -0.6946   -0.2987 C   0  0  0  0  0  0  0  0  0  0  0  0
    2.1653   -1.1344    0.8007 N   0  0  0  0  0  0  0  0  0  0  0  0
    3.4037   -0.6880    0.9273 C   0  0  0  0  0  0  0  0  0  0  0  0
    4.0934    0.1853    0.0438 C   0  0  0  0  0  0  0  0  0  0  0  0
    3.4106    0.6224   -1.0912 C   0  0  0  0  0  0  0  0  0  0  0  0
    2.0982    0.1638   -1.2565 C   0  0  0  0  0  0  0  0  0  0  0  0
    5.3654    0.4416    0.5243 N   0  0  0  0  0  0  0  0  0  0  0  0
    5.4663   -0.2399    1.6511 C   0  0  0  0  0  0  0  0  0  0  0  0
    6.6739   -0.2572    2.5206 C   0  0  0  0  0  0  0  0  0  0  0  0
    7.6299    0.9678    2.4462 C   0  0  0  0  0  0  0  0  0  0  0  0
    8.8388   -0.0054    2.5049 C   0  0  0  0  0  0  0  0  0  0  0  0
    7.8847   -1.1604    2.0974 C   0  0  0  0  0  0  0  0  0  0  0  0
    4.3066   -0.9596    1.9513 N   0  0  0  0  0  0  0  0  0  0  0  0
    4.0719   -1.8248    3.0596 C   0  0  0  0  0  0  0  0  0  0  0  0
    2.9679   -1.6156    3.8740 C   0  0  0  0  0  0  0  0  0  0  0  0
    2.7601   -2.5063    4.9418 C   0  0  0  0  0  0  0  0  0  0  0  0
    3.6718   -3.5703    5.1722 C   0  0  0  0  0  0  0  0  0  0  0  0
    3.2122   -4.2356    6.2719 N   0  0  0  0  0  0  0  0  0  0  0  0
    2.0675   -3.6855    6.7652 N   0  0  0  0  0  0  0  0  0  0  0  0
    1.7870   -2.6537    5.9844 C   0  0  0  0  0  0  0  0  0  0  0  0
    4.7781   -3.7701    4.3338 C   0  0  0  0  0  0  0  0  0  0  0  0
    5.8737   -5.1032    4.6353 Cl  0  0  0  0  0  0  0  0  0  0  0  0
    4.9647   -2.9062    3.2701 C   0  0  0  0  0  0  0  0  0  0  0  0
    3.8756    1.2897   -1.8107 H   0  0  0  0  0  0  0  0  0  0  0  0
    1.5113    0.4678   -2.1152 H   0  0  0  0  0  0  0  0  0  0  0  0
    6.3875   -0.4747    3.5531 H   0  0  0  0  0  0  0  0  0  0  0  0
    7.5297    1.7117    3.2410 H   0  0  0  0  0  0  0  0  0  0  0  0
    7.5430    1.4596    1.4757 H   0  0  0  0  0  0  0  0  0  0  0  0
    9.2163   -0.1324    3.5238 H   0  0  0  0  0  0  0  0  0  0  0  0
    9.6812    0.2021    1.8405 H   0  0  0  0  0  0  0  0  0  0  0  0
    7.9916   -2.1173    2.6161 H   0  0  0  0  0  0  0  0  0  0  0  0
    7.8840   -1.3298    1.0173 H   0  0  0  0  0  0  0  0  0  0  0  0
    2.2870   -0.7951    3.6759 H   0  0  0  0  0  0  0  0  0  0  0  0
    3.6007   -5.0590    6.7113 H   0  0  0  0  0  0  0  0  0  0  0  0
    0.9089   -2.0514    6.1803 H   0  0  0  0  0  0  0  0  0  0  0  0
    5.7899   -3.0612    2.5846 H   0  0  0  0  0  0  0  0  0  0  0  0
  1  2  1  0
  2  3  1  0
  2  4  1  0
  2  5  1  0
  5  6  2  0
  5 10  1  0
  6  7  1  0
  7  8  2  0
  7 17  1  0
  8  9  1  0
  8 11  1  0
  9 10  2  0
  9 28  1  0
 10 29  1  0
 11 12  2  0
 12 13  1  0
 12 17  1  0
 13 14  1  0
 13 16  1  0
 13 30  1  0
 14 15  1  0
 14 31  1  0
 14 32  1  0
 15 16  1  0
 15 33  1  0
 15 34  1  0
 16 35  1  0
 16 36  1  0
 17 18  1  0
 18 19  2  0
 18 27  1  0
 19 20  1  0
 19 37  1  0
 20 21  2  0
 20 24  1  0
 21 22  1  0
 21 25  1  0
 22 23  1  0
 22 38  1  0
 23 24  2  0
 24 39  1  0
 25 26  1  0
 25 27  2  0
 27 40  1  0
M  END
>  <group_name>  (1) 
JNS

>  <molecule_index>  (1) 
01581

>  <conformer_index>  (1) 
08

>  <method>  (1) 
b3lyp-d3bj

>  <basis>  (1) 
dzvp

>  <program>  (1) 
psi4

>  <initial_energy>  (1) 
-1083906.2662535487 kilocalorie / mole

>  <final_energy>  (1) 
-1083979.1240878347 kilocalorie / mole

$$$$
