JNS-01792-05
     RDKit          3D

 40 44  0  0  0  0  0  0  0  0999 V2000
   -0.4116    0.7072    1.1873 F   0  0  0  0  0  0  0  0  0  0  0  0
    0.0344    0.0337    0.1010 C   0  0  0  0  0  0  0  0  0  0  0  0
   -0.4930   -1.2140    0.1657 F   0  0  0  0  0  0  0  0  0  0  0  0
   -0.5043    0.6359   -0.9908 F   0  0  0  0  0  0  0  0  0  0  0  0
    1.5468    0.0009    0.0362 C   0  0  0  0  0  0  0  0  0  0  0  0
    2.1306   -0.5742    1.0944 N   0  0  0  0  0  0  0  0  0  0  0  0
    3.4552   -0.6157    1.0488 C   0  0  0  0  0  0  0  0  0  0  0  0
    4.2856   -0.1170   -0.0034 C   0  0  0  0  0  0  0  0  0  0  0  0
    5.6405   -0.3876    0.3777 C   0  0  0  0  0  0  0  0  0  0  0  0
    5.6106   -1.0202    1.6026 C   0  0  0  0  0  0  0  0  0  0  0  0
    6.7249   -1.5611    2.4108 C   0  0  0  0  0  0  0  0  0  0  0  0
    7.9371   -2.1507    1.7251 C   0  0  0  0  0  0  0  0  0  0  0  0
    6.9656   -3.0616    2.4401 C   0  0  0  0  0  0  0  0  0  0  0  0
    4.2798   -1.1563    2.0236 N   0  0  0  0  0  0  0  0  0  0  0  0
    3.8318   -1.7849    3.2225 C   0  0  0  0  0  0  0  0  0  0  0  0
    2.9927   -2.9093    3.1389 C   0  0  0  0  0  0  0  0  0  0  0  0
    2.5683   -3.5144    4.3099 C   0  0  0  0  0  0  0  0  0  0  0  0
    2.9847   -3.0068    5.5561 C   0  0  0  0  0  0  0  0  0  0  0  0
    2.4334   -3.7923    6.5781 N   0  0  0  0  0  0  0  0  0  0  0  0
    1.6493   -4.8302    6.0870 C   0  0  0  0  0  0  0  0  0  0  0  0
    1.0688   -5.6603    6.7647 O   0  0  0  0  0  0  0  0  0  0  0  0
    1.6770   -4.7061    4.5551 C   0  0  0  0  0  0  0  0  0  0  0  0
    3.8087   -1.8901    5.6541 C   0  0  0  0  0  0  0  0  0  0  0  0
    4.2198   -1.2755    4.4637 C   0  0  0  0  0  0  0  0  0  0  0  0
    3.6329    0.4796   -1.0885 C   0  0  0  0  0  0  0  0  0  0  0  0
    2.2374    0.5366   -1.0639 C   0  0  0  0  0  0  0  0  0  0  0  0
    6.5392   -0.1552   -0.1781 H   0  0  0  0  0  0  0  0  0  0  0  0
    6.9169   -1.0469    3.3492 H   0  0  0  0  0  0  0  0  0  0  0  0
    8.9062   -1.9710    2.1801 H   0  0  0  0  0  0  0  0  0  0  0  0
    7.9426   -2.1749    0.6402 H   0  0  0  0  0  0  0  0  0  0  0  0
    6.3127   -3.6792    1.8313 H   0  0  0  0  0  0  0  0  0  0  0  0
    7.2610   -3.5039    3.3864 H   0  0  0  0  0  0  0  0  0  0  0  0
    2.6835   -3.2794    2.1663 H   0  0  0  0  0  0  0  0  0  0  0  0
    2.5697   -3.6499    7.5712 H   0  0  0  0  0  0  0  0  0  0  0  0
    2.0544   -5.6378    4.1226 H   0  0  0  0  0  0  0  0  0  0  0  0
    0.6558   -4.5653    4.1869 H   0  0  0  0  0  0  0  0  0  0  0  0
    4.1148   -1.4903    6.6167 H   0  0  0  0  0  0  0  0  0  0  0  0
    4.8361   -0.3827    4.5028 H   0  0  0  0  0  0  0  0  0  0  0  0
    4.1884    0.8871   -1.9290 H   0  0  0  0  0  0  0  0  0  0  0  0
    1.6845    0.9862   -1.8802 H   0  0  0  0  0  0  0  0  0  0  0  0
  1  2  1  0
  2  3  1  0
  2  4  1  0
  2  5  1  0
  5  6  2  0
  5 26  1  0
  6  7  1  0
  7  8  2  0
  7 14  1  0
  8  9  1  0
  8 25  1  0
  9 10  2  0
  9 27  1  0
 10 11  1  0
 10 14  1  0
 11 12  1  0
 11 13  1  0
 11 28  1  0
 12 13  1  0
 12 29  1  0
 12 30  1  0
 13 31  1  0
 13 32  1  0
 14 15  1  0
 15 16  2  0
 15 24  1  0
 16 17  1  0
 16 33  1  0
 17 18  2  0
 17 22  1  0
 18 19  1  0
 18 23  1  0
 19 20  1  0
 19 34  1  0
 20 21  2  0
 20 22  1  0
 22 35  1  0
 22 36  1  0
 23 24  2  0
 23 37  1  0
 24 38  1  0
 25 26  2  0
 25 39  1  0
 26 40  1  0
M  END
>  <group_name>  (1) 
JNS

>  <molecule_index>  (1) 
01792

>  <conformer_index>  (1) 
05

>  <method>  (1) 
b3lyp-d3bj

>  <basis>  (1) 
dzvp

>  <program>  (1) 
psi4

>  <initial_energy>  (1) 
-798010.0206116049 kilocalorie / mole

>  <final_energy>  (1) 
-798015.2576112938 kilocalorie / mole

$$$$
