JNS-02536-06
     RDKit          3D

 44 47  0  0  0  0  0  0  0  0999 V2000
   -6.6831   -4.0632   -1.4025 C   0  0  0  0  0  0  0  0  0  0  0  0
   -5.4917   -3.1893   -1.0881 C   0  0  0  0  0  0  0  0  0  0  0  0
   -5.4610   -1.8426   -1.4785 C   0  0  0  0  0  0  0  0  0  0  0  0
   -4.3458   -1.0426   -1.2202 C   0  0  0  0  0  0  0  0  0  0  0  0
   -3.2431   -1.5844   -0.5576 C   0  0  0  0  0  0  0  0  0  0  0  0
   -3.2523   -2.9253   -0.1638 C   0  0  0  0  0  0  0  0  0  0  0  0
   -4.3700   -3.7163   -0.4283 C   0  0  0  0  0  0  0  0  0  0  0  0
   -2.1129   -0.7618   -0.2623 N   0  0  0  0  0  0  0  0  0  0  0  0
   -0.9889   -0.7299   -1.0294 C   0  0  0  0  0  0  0  0  0  0  0  0
   -0.6997   -1.5307   -2.4470 S   0  0  0  0  0  0  0  0  0  0  0  0
   -0.0883    0.1335   -0.3684 N   0  0  0  0  0  0  0  0  0  0  0  0
   -0.6289    0.6534    0.8158 C   0  0  0  0  0  0  0  0  0  0  0  0
   -0.1019    1.4622    1.5503 O   0  0  0  0  0  0  0  0  0  0  0  0
   -2.0029    0.0265    0.9614 C   0  0  0  0  0  0  0  0  0  0  0  0
   -3.1108    1.0499    1.3461 C   0  0  0  0  0  0  0  0  0  0  0  0
   -2.9382    0.6264    2.8303 C   0  0  0  0  0  0  0  0  0  0  0  0
   -2.2048   -0.6557    2.3517 C   0  0  0  0  0  0  0  0  0  0  0  0
    1.2491    0.3714   -0.7763 C   0  0  0  0  0  0  0  0  0  0  0  0
    2.1873    0.0365    0.1069 N   0  0  0  0  0  0  0  0  0  0  0  0
    3.4578    0.2552   -0.2050 C   0  0  0  0  0  0  0  0  0  0  0  0
    3.8605    0.8084   -1.4367 C   0  0  0  0  0  0  0  0  0  0  0  0
    2.8568    1.1456   -2.3601 C   0  0  0  0  0  0  0  0  0  0  0  0
    1.5256    0.9297   -2.0266 C   0  0  0  0  0  0  0  0  0  0  0  0
    5.2352    1.0390   -1.7770 C   0  0  0  0  0  0  0  0  0  0  0  0
    6.3364    1.2450   -2.0940 N   0  0  0  0  0  0  0  0  0  0  0  0
    4.4906   -0.1433    0.8469 C   0  0  0  0  0  0  0  0  0  0  0  0
    3.9226   -0.6596    1.9421 F   0  0  0  0  0  0  0  0  0  0  0  0
    5.2271    0.9298    1.2223 F   0  0  0  0  0  0  0  0  0  0  0  0
    5.3481   -1.0658    0.3459 F   0  0  0  0  0  0  0  0  0  0  0  0
   -7.5937   -3.4704   -1.5263 H   0  0  0  0  0  0  0  0  0  0  0  0
   -6.8597   -4.7980   -0.6114 H   0  0  0  0  0  0  0  0  0  0  0  0
   -6.5206   -4.6176   -2.3344 H   0  0  0  0  0  0  0  0  0  0  0  0
   -6.3160   -1.4140   -1.9959 H   0  0  0  0  0  0  0  0  0  0  0  0
   -4.3207   -0.0053   -1.5419 H   0  0  0  0  0  0  0  0  0  0  0  0
   -2.3808   -3.3427    0.3321 H   0  0  0  0  0  0  0  0  0  0  0  0
   -4.3695   -4.7596   -0.1212 H   0  0  0  0  0  0  0  0  0  0  0  0
   -2.9154    2.0915    1.0815 H   0  0  0  0  0  0  0  0  0  0  0  0
   -4.0747    0.7363    0.9392 H   0  0  0  0  0  0  0  0  0  0  0  0
   -3.8540    0.4787    3.4064 H   0  0  0  0  0  0  0  0  0  0  0  0
   -2.2691    1.2993    3.3680 H   0  0  0  0  0  0  0  0  0  0  0  0
   -2.8815   -1.5080    2.2571 H   0  0  0  0  0  0  0  0  0  0  0  0
   -1.2961   -0.9595    2.8760 H   0  0  0  0  0  0  0  0  0  0  0  0
    3.1294    1.5762   -3.3181 H   0  0  0  0  0  0  0  0  0  0  0  0
    0.7213    1.1788   -2.7078 H   0  0  0  0  0  0  0  0  0  0  0  0
  1  2  1  0
  1 30  1  0
  1 31  1  0
  1 32  1  0
  2  3  2  0
  2  7  1  0
  3  4  1  0
  3 33  1  0
  4  5  2  0
  4 34  1  0
  5  6  1  0
  5  8  1  0
  6  7  2  0
  6 35  1  0
  7 36  1  0
  8  9  1  0
  8 14  1  0
  9 10  2  0
  9 11  1  0
 11 12  1  0
 11 18  1  0
 12 13  2  0
 12 14  1  0
 14 15  1  0
 14 17  1  0
 15 16  1  0
 15 37  1  0
 15 38  1  0
 16 17  1  0
 16 39  1  0
 16 40  1  0
 17 41  1  0
 17 42  1  0
 18 19  2  0
 18 23  1  0
 19 20  1  0
 20 21  2  0
 20 26  1  0
 21 22  1  0
 21 24  1  0
 22 23  2  0
 22 43  1  0
 23 44  1  0
 24 25  3  0
 26 27  1  0
 26 28  1  0
 26 29  1  0
M  END
>  <group_name>  (1) 
JNS

>  <molecule_index>  (1) 
02536

>  <conformer_index>  (1) 
06

>  <method>  (1) 
b3lyp-d3bj

>  <basis>  (1) 
dzvp

>  <program>  (1) 
psi4

>  <initial_energy>  (1) 
-1106476.9501273537 kilocalorie / mole

>  <final_energy>  (1) 
-1106514.9139320767 kilocalorie / mole

$$$$
