JNS-02392-03
     RDKit          3D

 48 51  0  0  0  0  0  0  0  0999 V2000
   -2.6962    0.9972    2.3912 C   0  0  0  0  0  0  0  0  0  0  0  0
   -2.0201    0.4752    1.1510 C   0  0  0  0  0  0  0  0  0  0  0  0
   -2.7312    0.2036   -0.0245 C   0  0  0  0  0  0  0  0  0  0  0  0
   -2.0138   -0.2889   -1.1230 C   0  0  0  0  0  0  0  0  0  0  0  0
   -2.6814   -0.6257   -2.4298 C   0  0  0  0  0  0  0  0  0  0  0  0
   -0.6901   -0.4850   -1.0592 N   0  0  0  0  0  0  0  0  0  0  0  0
   -0.0984   -0.1803    0.1129 C   0  0  0  0  0  0  0  0  0  0  0  0
   -0.6956    0.2803    1.2287 N   0  0  0  0  0  0  0  0  0  0  0  0
    1.2573   -0.3475    0.1633 N   0  0  0  0  0  0  0  0  0  0  0  0
    2.0791   -0.5647    1.3644 C   0  0  0  0  0  0  0  0  0  0  0  0
    3.0963   -1.3321    0.4724 C   0  0  2  0  0  0  0  0  0  0  0  0
    4.3685   -0.5807    0.0955 C   0  0  0  0  0  0  0  0  0  0  0  0
    4.9585   -1.1242   -1.2139 C   0  0  0  0  0  0  0  0  0  0  0  0
    3.9053   -1.2918   -2.2357 N   0  0  0  0  0  0  0  0  0  0  0  0
    2.5987   -0.6753   -1.9807 C   0  0  0  0  0  0  0  0  0  0  0  0
    2.0456   -1.2564   -0.6782 C   0  0  2  0  0  0  0  0  0  0  0  0
    4.1085   -1.9651   -3.4021 C   0  0  0  0  0  0  0  0  0  0  0  0
    3.2519   -2.1289   -4.2716 O   0  0  0  0  0  0  0  0  0  0  0  0
    5.4576   -2.6315   -3.5808 C   0  0  0  0  0  0  0  0  0  0  0  0
    5.5049   -4.0201   -3.3843 C   0  0  0  0  0  0  0  0  0  0  0  0
    6.6964   -4.7075   -3.5881 C   0  0  0  0  0  0  0  0  0  0  0  0
    7.8208   -3.9811   -3.9981 C   0  0  0  0  0  0  0  0  0  0  0  0
    7.7918   -2.6652   -4.2111 N   0  0  0  0  0  0  0  0  0  0  0  0
    6.6398   -2.0143   -4.0094 C   0  0  0  0  0  0  0  0  0  0  0  0
    6.7552   -0.5214   -4.2872 C   0  0  0  0  0  0  0  0  0  0  0  0
    7.5148    0.0872   -3.3356 F   0  0  0  0  0  0  0  0  0  0  0  0
    7.3348   -0.2802   -5.4762 F   0  0  0  0  0  0  0  0  0  0  0  0
    5.5541    0.1024   -4.2862 F   0  0  0  0  0  0  0  0  0  0  0  0
   -3.7745    1.1051    2.2516 H   0  0  0  0  0  0  0  0  0  0  0  0
   -2.2747    1.9701    2.6638 H   0  0  0  0  0  0  0  0  0  0  0  0
   -2.5117    0.3197    3.2309 H   0  0  0  0  0  0  0  0  0  0  0  0
   -3.8030    0.3631   -0.0811 H   0  0  0  0  0  0  0  0  0  0  0  0
   -2.2545   -0.0178   -3.2339 H   0  0  0  0  0  0  0  0  0  0  0  0
   -3.7600   -0.4560   -2.3908 H   0  0  0  0  0  0  0  0  0  0  0  0
   -2.4940   -1.6732   -2.6859 H   0  0  0  0  0  0  0  0  0  0  0  0
    1.5765   -1.1789    2.1201 H   0  0  0  0  0  0  0  0  0  0  0  0
    2.4366    0.3567    1.8353 H   0  0  0  0  0  0  0  0  0  0  0  0
    3.3214   -2.3474    0.8081 H   0  0  0  0  0  0  0  0  0  0  0  0
    4.1433    0.4852   -0.0166 H   0  0  0  0  0  0  0  0  0  0  0  0
    5.1285   -0.6589    0.8796 H   0  0  0  0  0  0  0  0  0  0  0  0
    5.4310   -2.0937   -1.0269 H   0  0  0  0  0  0  0  0  0  0  0  0
    5.7366   -0.4419   -1.5711 H   0  0  0  0  0  0  0  0  0  0  0  0
    2.7043    0.4114   -1.8942 H   0  0  0  0  0  0  0  0  0  0  0  0
    1.9497   -0.8883   -2.8273 H   0  0  0  0  0  0  0  0  0  0  0  0
    1.5292   -2.2027   -0.8752 H   0  0  0  0  0  0  0  0  0  0  0  0
    4.6026   -4.5441   -3.0815 H   0  0  0  0  0  0  0  0  0  0  0  0
    6.7588   -5.7817   -3.4412 H   0  0  0  0  0  0  0  0  0  0  0  0
    8.7753   -4.4758   -4.1670 H   0  0  0  0  0  0  0  0  0  0  0  0
  1  2  1  0
  1 29  1  0
  1 30  1  0
  1 31  1  0
  2  3  2  0
  2  8  1  0
  3  4  1  0
  3 32  1  0
  4  5  1  0
  4  6  2  0
  5 33  1  0
  5 34  1  0
  5 35  1  0
  6  7  1  0
  7  8  2  0
  7  9  1  0
  9 10  1  0
  9 16  1  0
 10 11  1  0
 10 36  1  0
 10 37  1  0
 11 12  1  0
 11 16  1  0
 11 38  1  1
 12 13  1  0
 12 39  1  0
 12 40  1  0
 13 14  1  0
 13 41  1  0
 13 42  1  0
 14 15  1  0
 14 17  1  0
 15 16  1  0
 15 43  1  0
 15 44  1  0
 16 45  1  6
 17 18  2  0
 17 19  1  0
 19 20  2  0
 19 24  1  0
 20 21  1  0
 20 46  1  0
 21 22  2  0
 21 47  1  0
 22 23  1  0
 22 48  1  0
 23 24  2  0
 24 25  1  0
 25 26  1  0
 25 27  1  0
 25 28  1  0
M  END
>  <group_name>  (1) 
JNS

>  <molecule_index>  (1) 
02392

>  <conformer_index>  (1) 
03

>  <method>  (1) 
b3lyp-d3bj

>  <basis>  (1) 
dzvp

>  <program>  (1) 
psi4

>  <initial_energy>  (1) 
-868958.2244119906 kilocalorie / mole

>  <final_energy>  (1) 
-869017.1505277633 kilocalorie / mole

$$$$
