JNS-01861-02
     RDKit          3D

 34 37  0  0  0  0  0  0  0  0999 V2000
   -2.2949    1.2115   -2.1161 C   0  0  0  0  0  0  0  0  0  0  0  0
   -1.8316    0.5273   -0.8594 C   0  0  0  0  0  0  0  0  0  0  0  0
   -0.5077    0.4610   -0.4872 C   0  0  0  0  0  0  0  0  0  0  0  0
   -0.0852   -0.1846    0.7209 C   0  0  0  0  0  0  0  0  0  0  0  0
   -0.9800   -0.7785    1.5848 C   0  0  0  0  0  0  0  0  0  0  0  0
   -2.3518   -0.7466    1.2234 C   0  0  0  0  0  0  0  0  0  0  0  0
   -2.7736   -0.0955    0.0134 C   0  0  0  0  0  0  0  0  0  0  0  0
   -4.1150   -0.1613   -0.1451 N   0  0  0  0  0  0  0  0  0  0  0  0
   -4.5269   -0.8395    0.9456 N   0  0  0  0  0  0  0  0  0  0  0  0
   -3.5391   -1.2160    1.7982 C   0  0  0  0  0  0  0  0  0  0  0  0
    1.3091   -0.2371    1.0133 N   0  0  0  0  0  0  0  0  0  0  0  0
    1.9773   -1.3416    1.5307 C   0  0  0  0  0  0  0  0  0  0  0  0
    3.2999   -1.0485    1.7620 C   0  0  0  0  0  0  0  0  0  0  0  0
    3.4917    0.3190    1.3726 C   0  0  0  0  0  0  0  0  0  0  0  0
    2.2264    0.8006    0.9084 C   0  0  0  0  0  0  0  0  0  0  0  0
    1.9700    2.0263    0.4682 N   0  0  0  0  0  0  0  0  0  0  0  0
    3.0161    2.8580    0.4616 C   0  0  0  0  0  0  0  0  0  0  0  0
    4.3132    2.5165    0.8822 C   0  0  0  0  0  0  0  0  0  0  0  0
    4.5596    1.2242    1.3484 C   0  0  0  0  0  0  0  0  0  0  0  0
    2.7017    4.2483   -0.0517 C   0  0  0  0  0  0  0  0  0  0  0  0
    3.8027    5.0438   -0.0561 F   0  0  0  0  0  0  0  0  0  0  0  0
    1.7673    4.8676    0.7067 F   0  0  0  0  0  0  0  0  0  0  0  0
    2.2273    4.2198   -1.3210 F   0  0  0  0  0  0  0  0  0  0  0  0
   -1.4523    1.6300   -2.6718 H   0  0  0  0  0  0  0  0  0  0  0  0
   -2.8336    0.5118   -2.7642 H   0  0  0  0  0  0  0  0  0  0  0  0
   -2.9925    2.0216   -1.8781 H   0  0  0  0  0  0  0  0  0  0  0  0
    0.2496    0.9201   -1.1122 H   0  0  0  0  0  0  0  0  0  0  0  0
   -0.6467   -1.2296    2.5145 H   0  0  0  0  0  0  0  0  0  0  0  0
   -5.5179   -1.0161    1.0539 H   0  0  0  0  0  0  0  0  0  0  0  0
   -3.7444   -1.7622    2.7085 H   0  0  0  0  0  0  0  0  0  0  0  0
    1.4425   -2.2720    1.6627 H   0  0  0  0  0  0  0  0  0  0  0  0
    4.0431   -1.7367    2.1424 H   0  0  0  0  0  0  0  0  0  0  0  0
    5.1054    3.2547    0.8416 H   0  0  0  0  0  0  0  0  0  0  0  0
    5.5527    0.9357    1.6826 H   0  0  0  0  0  0  0  0  0  0  0  0
  1  2  1  0
  1 24  1  0
  1 25  1  0
  1 26  1  0
  2  3  2  0
  2  7  1  0
  3  4  1  0
  3 27  1  0
  4  5  2  0
  4 11  1  0
  5  6  1  0
  5 28  1  0
  6  7  1  0
  6 10  2  0
  7  8  2  0
  8  9  1  0
  9 10  1  0
  9 29  1  0
 10 30  1  0
 11 12  1  0
 11 15  1  0
 12 13  2  0
 12 31  1  0
 13 14  1  0
 13 32  1  0
 14 15  2  0
 14 19  1  0
 15 16  1  0
 16 17  2  0
 17 18  1  0
 17 20  1  0
 18 19  2  0
 18 33  1  0
 19 34  1  0
 20 21  1  0
 20 22  1  0
 20 23  1  0
M  END
>  <group_name>  (1) 
JNS

>  <molecule_index>  (1) 
01861

>  <conformer_index>  (1) 
02

>  <method>  (1) 
b3lyp-d3bj

>  <basis>  (1) 
dzvp

>  <program>  (1) 
psi4

>  <initial_energy>  (1) 
-712222.5443746261 kilocalorie / mole

>  <final_energy>  (1) 
-712273.4727993284 kilocalorie / mole

$$$$
