JNS-01754-06
     RDKit          3D

 31 33  0  0  0  0  0  0  0  0999 V2000
   -3.7230   -2.6836   -2.1322 F   0  0  0  0  0  0  0  0  0  0  0  0
   -3.8021   -1.3348   -2.0650 C   0  0  0  0  0  0  0  0  0  0  0  0
   -3.5077   -0.8535   -3.3013 F   0  0  0  0  0  0  0  0  0  0  0  0
   -5.0927   -1.0218   -1.8106 F   0  0  0  0  0  0  0  0  0  0  0  0
   -2.8684   -0.7678   -1.0175 C   0  0  0  0  0  0  0  0  0  0  0  0
   -1.8470    0.1180   -1.3485 C   0  0  0  0  0  0  0  0  0  0  0  0
   -1.0156    0.6021   -0.3370 C   0  0  0  0  0  0  0  0  0  0  0  0
   -1.2344    0.1711    0.9794 C   0  0  0  0  0  0  0  0  0  0  0  0
   -0.4971    0.5651    2.0902 N   0  0  0  0  0  0  0  0  0  0  0  0
    0.7001    1.2390    2.2090 C   0  0  0  0  0  0  0  0  0  0  0  0
    1.1523    1.5642    3.3905 N   0  0  0  0  0  0  0  0  0  0  0  0
    2.3951    2.1721    3.3114 C   0  0  0  0  0  0  0  0  0  0  0  0
    2.8845    2.3133    2.0378 C   0  0  0  0  0  0  0  0  0  0  0  0
    1.7715    1.6536    0.8740 S   0  0  0  0  0  0  0  0  0  0  0  0
    3.0559    2.6186    4.5495 C   0  0  0  0  0  0  0  0  0  0  0  0
    4.3989    3.0247    4.5819 C   0  0  0  0  0  0  0  0  0  0  0  0
    4.9515    3.4477    5.7878 C   0  0  0  0  0  0  0  0  0  0  0  0
    4.1461    3.4466    6.9323 C   0  0  0  0  0  0  0  0  0  0  0  0
    2.8642    3.0565    6.9277 N   0  0  0  0  0  0  0  0  0  0  0  0
    2.3426    2.6547    5.7623 C   0  0  0  0  0  0  0  0  0  0  0  0
   -2.3093   -0.7253    1.1975 C   0  0  0  0  0  0  0  0  0  0  0  0
   -3.1002   -1.1783    0.2372 N   0  0  0  0  0  0  0  0  0  0  0  0
   -1.7018    0.4360   -2.3748 H   0  0  0  0  0  0  0  0  0  0  0  0
   -0.2415    1.3165   -0.5864 H   0  0  0  0  0  0  0  0  0  0  0  0
   -0.8628    0.2948    2.9975 H   0  0  0  0  0  0  0  0  0  0  0  0
    3.7966    2.7858    1.7008 H   0  0  0  0  0  0  0  0  0  0  0  0
    5.0093    2.9987    3.6831 H   0  0  0  0  0  0  0  0  0  0  0  0
    5.9885    3.7657    5.8479 H   0  0  0  0  0  0  0  0  0  0  0  0
    4.5487    3.7682    7.8916 H   0  0  0  0  0  0  0  0  0  0  0  0
    1.3022    2.3417    5.7760 H   0  0  0  0  0  0  0  0  0  0  0  0
   -2.5194   -1.0778    2.2083 H   0  0  0  0  0  0  0  0  0  0  0  0
  1  2  1  0
  2  3  1  0
  2  4  1  0
  2  5  1  0
  5  6  2  0
  5 22  1  0
  6  7  1  0
  6 23  1  0
  7  8  2  0
  7 24  1  0
  8  9  1  0
  8 21  1  0
  9 10  1  0
  9 25  1  0
 10 11  2  0
 10 14  1  0
 11 12  1  0
 12 13  2  0
 12 15  1  0
 13 14  1  0
 13 26  1  0
 15 16  2  0
 15 20  1  0
 16 17  1  0
 16 27  1  0
 17 18  2  0
 17 28  1  0
 18 19  1  0
 18 29  1  0
 19 20  2  0
 20 30  1  0
 21 22  2  0
 21 31  1  0
M  END
>  <group_name>  (1) 
JNS

>  <molecule_index>  (1) 
01754

>  <conformer_index>  (1) 
06

>  <method>  (1) 
b3lyp-d3bj

>  <basis>  (1) 
dzvp

>  <program>  (1) 
psi4

>  <initial_energy>  (1) 
-913491.3251700903 kilocalorie / mole

>  <final_energy>  (1) 
-913536.0679446734 kilocalorie / mole

$$$$
