JNS-02456-07
     RDKit          3D

 41 44  0  0  0  0  0  0  0  0999 V2000
   -2.0781    1.3875    2.4617 F   0  0  0  0  0  0  0  0  0  0  0  0
   -2.3296    1.6483    1.1609 C   0  0  0  0  0  0  0  0  0  0  0  0
   -3.6781    1.7182    1.0162 F   0  0  0  0  0  0  0  0  0  0  0  0
   -1.8347    2.8772    0.8904 F   0  0  0  0  0  0  0  0  0  0  0  0
   -1.7267    0.5926    0.2492 C   0  0  0  0  0  0  0  0  0  0  0  0
   -0.4135    0.4216    0.3975 N   0  0  0  0  0  0  0  0  0  0  0  0
    0.2106   -0.4864   -0.3720 C   0  0  0  0  0  0  0  0  0  0  0  0
   -0.5038   -1.2579   -1.3121 C   0  0  0  0  0  0  0  0  0  0  0  0
   -1.8719   -1.0590   -1.4600 C   0  0  0  0  0  0  0  0  0  0  0  0
   -2.5153   -0.1059   -0.6635 C   0  0  0  0  0  0  0  0  0  0  0  0
    1.6689   -0.6455   -0.1704 C   0  0  0  0  0  0  0  0  0  0  0  0
    2.2584   -0.2222    1.0550 C   0  0  0  0  0  0  0  0  0  0  0  0
    3.5487   -0.3318    1.3601 N   0  0  0  0  0  0  0  0  0  0  0  0
    4.3397   -0.8822    0.4169 C   0  0  0  0  0  0  0  0  0  0  0  0
    5.7509   -1.1508    0.4269 C   0  0  0  0  0  0  0  0  0  0  0  0
    6.0498   -1.7306   -0.7848 C   0  0  0  0  0  0  0  0  0  0  0  0
    4.9030   -1.8414   -1.5630 N   0  0  0  0  0  0  0  0  0  0  0  0
    4.7916   -2.4529   -2.8702 C   0  0  0  0  0  0  0  0  0  0  0  0
    3.8156   -3.6363   -2.9493 C   0  0  0  0  0  0  0  0  0  0  0  0
    3.1708   -3.8407   -3.9779 O   0  0  0  0  0  0  0  0  0  0  0  0
    3.7022   -4.4370   -1.8641 N   0  0  0  0  0  0  0  0  0  0  0  0
    2.8867   -5.6542   -1.7544 C   0  0  0  0  0  0  0  0  0  0  0  0
    3.5245   -5.8639   -0.3650 C   0  0  0  0  0  0  0  0  0  0  0  0
    4.2778   -6.9961   -0.2512 F   0  0  0  0  0  0  0  0  0  0  0  0
    2.6479   -5.8522    0.6775 F   0  0  0  0  0  0  0  0  0  0  0  0
    4.3419   -4.5662   -0.5381 C   0  0  0  0  0  0  0  0  0  0  0  0
    3.8407   -1.3245   -0.8433 C   0  0  0  0  0  0  0  0  0  0  0  0
    2.4888   -1.2115   -1.1537 C   0  0  0  0  0  0  0  0  0  0  0  0
   -0.0003   -2.0153   -1.9035 H   0  0  0  0  0  0  0  0  0  0  0  0
   -2.4369   -1.6454   -2.1793 H   0  0  0  0  0  0  0  0  0  0  0  0
   -3.5801    0.0800   -0.7421 H   0  0  0  0  0  0  0  0  0  0  0  0
    1.6135    0.2209    1.8084 H   0  0  0  0  0  0  0  0  0  0  0  0
    6.4464   -0.9345    1.2263 H   0  0  0  0  0  0  0  0  0  0  0  0
    6.9992   -2.0787   -1.1721 H   0  0  0  0  0  0  0  0  0  0  0  0
    5.7816   -2.8007   -3.1790 H   0  0  0  0  0  0  0  0  0  0  0  0
    4.4500   -1.7293   -3.6157 H   0  0  0  0  0  0  0  0  0  0  0  0
    1.8096   -5.4683   -1.7366 H   0  0  0  0  0  0  0  0  0  0  0  0
    3.1310   -6.4226   -2.4923 H   0  0  0  0  0  0  0  0  0  0  0  0
    5.4234   -4.7197   -0.5624 H   0  0  0  0  0  0  0  0  0  0  0  0
    4.0800   -3.7775    0.1703 H   0  0  0  0  0  0  0  0  0  0  0  0
    2.0982   -1.5243   -2.1173 H   0  0  0  0  0  0  0  0  0  0  0  0
  1  2  1  0
  2  3  1  0
  2  4  1  0
  2  5  1  0
  5  6  2  0
  5 10  1  0
  6  7  1  0
  7  8  2  0
  7 11  1  0
  8  9  1  0
  8 29  1  0
  9 10  2  0
  9 30  1  0
 10 31  1  0
 11 12  2  0
 11 28  1  0
 12 13  1  0
 12 32  1  0
 13 14  2  0
 14 15  1  0
 14 27  1  0
 15 16  2  0
 15 33  1  0
 16 17  1  0
 16 34  1  0
 17 18  1  0
 17 27  1  0
 18 19  1  0
 18 35  1  0
 18 36  1  0
 19 20  2  0
 19 21  1  0
 21 22  1  0
 21 26  1  0
 22 23  1  0
 22 37  1  0
 22 38  1  0
 23 24  1  0
 23 25  1  0
 23 26  1  0
 26 39  1  0
 26 40  1  0
 27 28  2  0
 28 41  1  0
M  END
>  <group_name>  (1) 
JNS

>  <molecule_index>  (1) 
02456

>  <conformer_index>  (1) 
07

>  <method>  (1) 
b3lyp-d3bj

>  <basis>  (1) 
dzvp

>  <program>  (1) 
psi4

>  <initial_energy>  (1) 
-933362.8311028114 kilocalorie / mole

>  <final_energy>  (1) 
-933410.2021127896 kilocalorie / mole

$$$$
