JNS-01614-08
     RDKit          3D

 39 42  0  0  0  0  0  0  0  0999 V2000
   -0.5939    0.5641   -1.0543 C   0  0  0  0  0  0  0  0  0  0  0  0
    0.6121    1.0688   -1.8696 C   0  0  0  0  0  0  0  0  0  0  0  0
    1.9203    0.6838   -1.2544 C   0  0  0  0  0  0  0  0  0  0  0  0
    2.7220    1.5263   -0.6290 N   0  0  0  0  0  0  0  0  0  0  0  0
    3.7626    0.7540   -0.1394 C   0  0  0  0  0  0  0  0  0  0  0  0
    3.5657   -0.6089   -0.4906 C   0  0  0  0  0  0  0  0  0  0  0  0
    4.3482   -1.6315   -0.1860 N   0  0  0  0  0  0  0  0  0  0  0  0
    5.4322   -1.2960    0.5304 C   0  0  0  0  0  0  0  0  0  0  0  0
    5.7504    0.0093    0.9398 C   0  0  0  0  0  0  0  0  0  0  0  0
    4.9012    1.0699    0.6010 C   0  0  0  0  0  0  0  0  0  0  0  0
    6.3266   -2.4652    0.8878 C   0  0  0  0  0  0  0  0  0  0  0  0
    5.6653   -3.3987    1.6148 F   0  0  0  0  0  0  0  0  0  0  0  0
    7.3981   -2.0734    1.6241 F   0  0  0  0  0  0  0  0  0  0  0  0
    6.8069   -3.0885   -0.2135 F   0  0  0  0  0  0  0  0  0  0  0  0
    2.3801   -0.6328   -1.2159 N   0  0  0  0  0  0  0  0  0  0  0  0
    1.7725   -1.7963   -1.7810 C   0  0  0  0  0  0  0  0  0  0  0  0
    1.5970   -1.8889   -3.1515 C   0  0  0  0  0  0  0  0  0  0  0  0
    0.9663   -3.0450   -3.6509 C   0  0  0  0  0  0  0  0  0  0  0  0
    0.5661   -4.0683   -2.7545 C   0  0  0  0  0  0  0  0  0  0  0  0
    0.0052   -5.0449   -3.5356 N   0  0  0  0  0  0  0  0  0  0  0  0
    0.0183   -4.7266   -4.8603 N   0  0  0  0  0  0  0  0  0  0  0  0
    0.5902   -3.5341   -4.9431 C   0  0  0  0  0  0  0  0  0  0  0  0
    0.7649   -3.9944   -1.3594 C   0  0  0  0  0  0  0  0  0  0  0  0
    0.3452   -5.1169   -0.4464 C   0  0  0  0  0  0  0  0  0  0  0  0
    1.3687   -2.8332   -0.9008 C   0  0  0  0  0  0  0  0  0  0  0  0
   -0.5529    0.9450   -0.0295 H   0  0  0  0  0  0  0  0  0  0  0  0
   -0.6197   -0.5284   -1.0152 H   0  0  0  0  0  0  0  0  0  0  0  0
   -1.5266    0.9086   -1.5114 H   0  0  0  0  0  0  0  0  0  0  0  0
    0.5447    0.6891   -2.8934 H   0  0  0  0  0  0  0  0  0  0  0  0
    0.6049    2.1599   -1.9205 H   0  0  0  0  0  0  0  0  0  0  0  0
    6.6503    0.1853    1.5171 H   0  0  0  0  0  0  0  0  0  0  0  0
    5.1166    2.0907    0.9028 H   0  0  0  0  0  0  0  0  0  0  0  0
    1.9488   -1.1013   -3.8109 H   0  0  0  0  0  0  0  0  0  0  0  0
   -0.3835   -5.9333   -3.2524 H   0  0  0  0  0  0  0  0  0  0  0  0
    0.7160   -3.0651   -5.9111 H   0  0  0  0  0  0  0  0  0  0  0  0
   -0.7306   -5.3158   -0.5263 H   0  0  0  0  0  0  0  0  0  0  0  0
    0.5656   -4.8801    0.5968 H   0  0  0  0  0  0  0  0  0  0  0  0
    0.8723   -6.0459   -0.6953 H   0  0  0  0  0  0  0  0  0  0  0  0
    1.5543   -2.7063    0.1615 H   0  0  0  0  0  0  0  0  0  0  0  0
  1  2  1  0
  1 26  1  0
  1 27  1  0
  1 28  1  0
  2  3  1  0
  2 29  1  0
  2 30  1  0
  3  4  2  0
  3 15  1  0
  4  5  1  0
  5  6  2  0
  5 10  1  0
  6  7  1  0
  6 15  1  0
  7  8  2  0
  8  9  1  0
  8 11  1  0
  9 10  2  0
  9 31  1  0
 10 32  1  0
 11 12  1  0
 11 13  1  0
 11 14  1  0
 15 16  1  0
 16 17  2  0
 16 25  1  0
 17 18  1  0
 17 33  1  0
 18 19  2  0
 18 22  1  0
 19 20  1  0
 19 23  1  0
 20 21  1  0
 20 34  1  0
 21 22  2  0
 22 35  1  0
 23 24  1  0
 23 25  2  0
 24 36  1  0
 24 37  1  0
 24 38  1  0
 25 39  1  0
M  END
>  <group_name>  (1) 
JNS

>  <molecule_index>  (1) 
01614

>  <conformer_index>  (1) 
08

>  <method>  (1) 
b3lyp-d3bj

>  <basis>  (1) 
dzvp

>  <program>  (1) 
psi4

>  <initial_energy>  (1) 
-771666.0843561859 kilocalorie / mole

>  <final_energy>  (1) 
-771705.7333169333 kilocalorie / mole

$$$$
