JNS-02158-00
     RDKit          3D

 42 45  0  0  0  0  0  0  0  0999 V2000
   -1.0946    1.7235    0.9900 C   0  0  0  0  0  0  0  0  0  0  0  0
   -0.2355    1.8739   -0.2741 C   0  0  2  0  0  0  0  0  0  0  0  0
    1.0001    2.6472   -0.0245 N   0  0  0  0  0  0  0  0  0  0  0  0
    0.8979    4.1118   -0.0843 C   0  0  0  0  0  0  0  0  0  0  0  0
    0.5362    4.5875   -1.5025 C   0  0  0  0  0  0  0  0  0  0  0  0
   -0.6046    3.7438   -1.9682 C   0  0  0  0  0  0  0  0  0  0  0  0
   -0.9646    2.5493   -1.3982 C   0  0  0  0  0  0  0  0  0  0  0  0
   -2.0828    2.0625   -2.0241 N   0  0  0  0  0  0  0  0  0  0  0  0
   -2.4455    2.8865   -2.9588 N   0  0  0  0  0  0  0  0  0  0  0  0
   -1.5493    3.9353   -2.9471 N   0  0  0  0  0  0  0  0  0  0  0  0
   -1.6541    4.9861   -3.8846 C   0  0  0  0  0  0  0  0  0  0  0  0
   -2.8178    5.1142   -4.5237 N   0  0  0  0  0  0  0  0  0  0  0  0
   -2.8908    6.0992   -5.4208 C   0  0  0  0  0  0  0  0  0  0  0  0
   -1.8070    6.9456   -5.6444 C   0  0  0  0  0  0  0  0  0  0  0  0
   -1.8874    7.9447   -6.5452 F   0  0  0  0  0  0  0  0  0  0  0  0
   -0.6426    6.7414   -4.9133 C   0  0  0  0  0  0  0  0  0  0  0  0
   -0.5617    5.7433   -4.0267 N   0  0  0  0  0  0  0  0  0  0  0  0
    2.1849    2.0904    0.3553 C   0  0  0  0  0  0  0  0  0  0  0  0
    3.1773    2.7377    0.6905 O   0  0  0  0  0  0  0  0  0  0  0  0
    2.2793    0.5810    0.3786 C   0  0  0  0  0  0  0  0  0  0  0  0
    2.4656   -0.0979    1.5860 C   0  0  0  0  0  0  0  0  0  0  0  0
    2.6504   -1.4813    1.5681 C   0  0  0  0  0  0  0  0  0  0  0  0
    2.6752   -2.2039    0.4415 N   0  0  0  0  0  0  0  0  0  0  0  0
    2.5150   -1.5662   -0.7166 C   0  0  0  0  0  0  0  0  0  0  0  0
    2.3168   -0.1845   -0.7825 C   0  0  0  0  0  0  0  0  0  0  0  0
    2.1476    0.4177   -1.9773 F   0  0  0  0  0  0  0  0  0  0  0  0
    2.5456   -2.3944   -1.9944 C   0  0  0  0  0  0  0  0  0  0  0  0
    3.5318   -1.9709   -2.8233 F   0  0  0  0  0  0  0  0  0  0  0  0
    2.7462   -3.6945   -1.7466 F   0  0  0  0  0  0  0  0  0  0  0  0
    1.3754   -2.2756   -2.6716 F   0  0  0  0  0  0  0  0  0  0  0  0
   -0.5495    1.1617    1.7546 H   0  0  0  0  0  0  0  0  0  0  0  0
   -2.0139    1.1847    0.7451 H   0  0  0  0  0  0  0  0  0  0  0  0
   -1.3694    2.7001    1.3989 H   0  0  0  0  0  0  0  0  0  0  0  0
    0.0469    0.8778   -0.6153 H   0  0  0  0  0  0  0  0  0  0  0  0
    1.8548    4.5200    0.2360 H   0  0  0  0  0  0  0  0  0  0  0  0
    0.1279    4.4432    0.6219 H   0  0  0  0  0  0  0  0  0  0  0  0
    1.3919    4.4830   -2.1769 H   0  0  0  0  0  0  0  0  0  0  0  0
    0.2737    5.6482   -1.4849 H   0  0  0  0  0  0  0  0  0  0  0  0
   -3.8251    6.2260   -5.9647 H   0  0  0  0  0  0  0  0  0  0  0  0
    0.2287    7.3791   -5.0476 H   0  0  0  0  0  0  0  0  0  0  0  0
    2.4769    0.4523    2.5220 H   0  0  0  0  0  0  0  0  0  0  0  0
    2.7892   -2.0335    2.4946 H   0  0  0  0  0  0  0  0  0  0  0  0
  1  2  1  0
  1 31  1  0
  1 32  1  0
  1 33  1  0
  2  3  1  0
  2  7  1  0
  2 34  1  6
  3  4  1  0
  3 18  1  0
  4  5  1  0
  4 35  1  0
  4 36  1  0
  5  6  1  0
  5 37  1  0
  5 38  1  0
  6  7  2  0
  6 10  1  0
  7  8  1  0
  8  9  2  0
  9 10  1  0
 10 11  1  0
 11 12  2  0
 11 17  1  0
 12 13  1  0
 13 14  2  0
 13 39  1  0
 14 15  1  0
 14 16  1  0
 16 17  2  0
 16 40  1  0
 18 19  2  0
 18 20  1  0
 20 21  2  0
 20 25  1  0
 21 22  1  0
 21 41  1  0
 22 23  2  0
 22 42  1  0
 23 24  1  0
 24 25  2  0
 24 27  1  0
 25 26  1  0
 27 28  1  0
 27 29  1  0
 27 30  1  0
M  END
>  <group_name>  (1) 
JNS

>  <molecule_index>  (1) 
02158

>  <conformer_index>  (1) 
00

>  <method>  (1) 
b3lyp-d3bj

>  <basis>  (1) 
dzvp

>  <program>  (1) 
psi4

>  <initial_energy>  (1) 
-1012122.5657062067 kilocalorie / mole

>  <final_energy>  (1) 
-1012182.1641781791 kilocalorie / mole

$$$$
