JNS-01554-05
     RDKit          3D

 35 38  0  0  0  0  0  0  0  0999 V2000
   -0.3026   -0.6597   -1.9083 F   0  0  0  0  0  0  0  0  0  0  0  0
    0.1001   -0.8930   -0.6333 C   0  0  0  0  0  0  0  0  0  0  0  0
   -0.7751   -0.2433    0.1955 F   0  0  0  0  0  0  0  0  0  0  0  0
    1.4474   -0.4315   -0.4299 N   0  0  0  0  0  0  0  0  0  0  0  0
    2.2475   -1.3295    0.2295 N   0  0  0  0  0  0  0  0  0  0  0  0
    3.4461   -0.7317    0.2455 C   0  0  0  0  0  0  0  0  0  0  0  0
    4.6764   -1.1812    0.7936 C   0  0  0  0  0  0  0  0  0  0  0  0
    5.7565   -0.3438    0.6433 C   0  0  0  0  0  0  0  0  0  0  0  0
    5.6031    0.9096   -0.0358 C   0  0  0  0  0  0  0  0  0  0  0  0
    4.4807    1.3615   -0.5494 N   0  0  0  0  0  0  0  0  0  0  0  0
    3.4096    0.5413   -0.4127 C   0  0  0  0  0  0  0  0  0  0  0  0
    2.0764    0.7211   -0.8422 C   0  0  0  0  0  0  0  0  0  0  0  0
    1.4942    1.8576   -1.5554 C   0  0  0  0  0  0  0  0  0  0  0  0
    2.3207    2.5486   -2.4633 C   0  0  0  0  0  0  0  0  0  0  0  0
    1.8409    3.6564   -3.1598 C   0  0  0  0  0  0  0  0  0  0  0  0
    2.8604    4.5147   -4.2988 Cl  0  0  0  0  0  0  0  0  0  0  0  0
    0.5340    4.0827   -2.9442 C   0  0  0  0  0  0  0  0  0  0  0  0
   -0.1545    5.1504   -3.5121 N   0  0  0  0  0  0  0  0  0  0  0  0
   -1.4542    5.2594   -3.0169 C   0  0  0  0  0  0  0  0  0  0  0  0
   -2.2647    6.1057   -3.3429 O   0  0  0  0  0  0  0  0  0  0  0  0
   -1.6286    4.1155   -2.0043 C   0  0  0  0  0  0  0  0  0  0  0  0
   -0.2950    3.4091   -2.0271 C   0  0  0  0  0  0  0  0  0  0  0  0
    0.1726    2.3093   -1.3331 C   0  0  0  0  0  0  0  0  0  0  0  0
    6.8066    1.8322   -0.1405 C   0  0  0  0  0  0  0  0  0  0  0  0
    6.7162    2.6869   -1.1702 F   0  0  0  0  0  0  0  0  0  0  0  0
    6.9533    2.5668    0.9940 F   0  0  0  0  0  0  0  0  0  0  0  0
    7.9544    1.1193   -0.2929 F   0  0  0  0  0  0  0  0  0  0  0  0
    0.0715   -1.9584   -0.4116 H   0  0  0  0  0  0  0  0  0  0  0  0
    4.7538   -2.1388    1.2998 H   0  0  0  0  0  0  0  0  0  0  0  0
    6.7326   -0.6200    1.0273 H   0  0  0  0  0  0  0  0  0  0  0  0
    3.3424    2.2254   -2.6215 H   0  0  0  0  0  0  0  0  0  0  0  0
    0.2292    5.7929   -4.1953 H   0  0  0  0  0  0  0  0  0  0  0  0
   -2.4635    3.4806   -2.3162 H   0  0  0  0  0  0  0  0  0  0  0  0
   -1.8839    4.5357   -1.0265 H   0  0  0  0  0  0  0  0  0  0  0  0
   -0.4656    1.8174   -0.6095 H   0  0  0  0  0  0  0  0  0  0  0  0
  1  2  1  0
  2  3  1  0
  2  4  1  0
  2 28  1  0
  4  5  1  0
  4 12  1  0
  5  6  2  0
  6  7  1  0
  6 11  1  0
  7  8  2  0
  7 29  1  0
  8  9  1  0
  8 30  1  0
  9 10  2  0
  9 24  1  0
 10 11  1  0
 11 12  2  0
 12 13  1  0
 13 14  2  0
 13 23  1  0
 14 15  1  0
 14 31  1  0
 15 16  1  0
 15 17  2  0
 17 18  1  0
 17 22  1  0
 18 19  1  0
 18 32  1  0
 19 20  2  0
 19 21  1  0
 21 22  1  0
 21 33  1  0
 21 34  1  0
 22 23  2  0
 23 35  1  0
 24 25  1  0
 24 26  1  0
 24 27  1  0
M  END
>  <group_name>  (1) 
JNS

>  <molecule_index>  (1) 
01554

>  <conformer_index>  (1) 
05

>  <method>  (1) 
b3lyp-d3bj

>  <basis>  (1) 
dzvp

>  <program>  (1) 
psi4

>  <initial_energy>  (1) 
-1172411.859040047 kilocalorie / mole

>  <final_energy>  (1) 
-1172456.7484569296 kilocalorie / mole

$$$$
