JNS-01356-05
     RDKit          3D

 33 36  0  0  0  0  0  0  0  0999 V2000
    0.7381   -2.4373    1.8665 F   0  0  0  0  0  0  0  0  0  0  0  0
   -0.4255   -2.4939    1.1762 C   0  0  0  0  0  0  0  0  0  0  0  0
   -1.3405   -3.0947    1.9425 F   0  0  0  0  0  0  0  0  0  0  0  0
   -0.2095   -3.2803    0.0902 F   0  0  0  0  0  0  0  0  0  0  0  0
   -0.8834   -1.1116    0.7704 C   0  0  0  0  0  0  0  0  0  0  0  0
   -2.1185   -0.6977    0.9240 N   0  0  0  0  0  0  0  0  0  0  0  0
   -2.1136    0.6042    0.4522 C   0  0  0  0  0  0  0  0  0  0  0  0
   -0.8137    0.9569    0.0079 C   0  0  0  0  0  0  0  0  0  0  0  0
   -0.4312    2.1229   -0.4902 N   0  0  0  0  0  0  0  0  0  0  0  0
   -1.4133    3.0285   -0.5669 C   0  0  0  0  0  0  0  0  0  0  0  0
   -2.7458    2.8096   -0.1679 C   0  0  0  0  0  0  0  0  0  0  0  0
   -3.1180    1.5700    0.3572 C   0  0  0  0  0  0  0  0  0  0  0  0
   -0.9801    4.3696   -1.1323 C   0  0  0  0  0  0  0  0  0  0  0  0
   -2.0087    5.2526   -1.1657 F   0  0  0  0  0  0  0  0  0  0  0  0
    0.0026    4.9252   -0.3879 F   0  0  0  0  0  0  0  0  0  0  0  0
   -0.5119    4.2490   -2.3942 F   0  0  0  0  0  0  0  0  0  0  0  0
   -0.0263   -0.1722    0.2139 N   0  0  0  0  0  0  0  0  0  0  0  0
    1.3680   -0.2752   -0.0951 C   0  0  0  0  0  0  0  0  0  0  0  0
    2.2608    0.5733    0.5732 C   0  0  0  0  0  0  0  0  0  0  0  0
    3.5834    0.4287    0.2065 C   0  0  0  0  0  0  0  0  0  0  0  0
    4.0581   -0.4883   -0.7497 C   0  0  0  0  0  0  0  0  0  0  0  0
    5.4454   -0.3613   -0.8534 N   0  0  0  0  0  0  0  0  0  0  0  0
    5.7231    0.5762   -0.0000 C   0  0  0  0  0  0  0  0  0  0  0  0
    6.9094    1.0903    0.3016 O   0  0  0  0  0  0  0  0  0  0  0  0
    4.6832    1.1205    0.6909 O   0  0  0  0  0  0  0  0  0  0  0  0
    3.1372   -1.3130   -1.3980 C   0  0  0  0  0  0  0  0  0  0  0  0
    3.7092   -2.5685   -2.7067 Br  0  0  0  0  0  0  0  0  0  0  0  0
    1.7847   -1.1910   -1.0725 C   0  0  0  0  0  0  0  0  0  0  0  0
   -3.4716    3.6076   -0.2690 H   0  0  0  0  0  0  0  0  0  0  0  0
   -4.1349    1.3657    0.6785 H   0  0  0  0  0  0  0  0  0  0  0  0
    1.9272    1.2890    1.3153 H   0  0  0  0  0  0  0  0  0  0  0  0
    7.5682    0.6296   -0.2493 H   0  0  0  0  0  0  0  0  0  0  0  0
    1.0499   -1.8075   -1.5766 H   0  0  0  0  0  0  0  0  0  0  0  0
  1  2  1  0
  2  3  1  0
  2  4  1  0
  2  5  1  0
  5  6  2  0
  5 17  1  0
  6  7  1  0
  7  8  2  0
  7 12  1  0
  8  9  1  0
  8 17  1  0
  9 10  2  0
 10 11  1  0
 10 13  1  0
 11 12  2  0
 11 29  1  0
 12 30  1  0
 13 14  1  0
 13 15  1  0
 13 16  1  0
 17 18  1  0
 18 19  2  0
 18 28  1  0
 19 20  1  0
 19 31  1  0
 20 21  2  0
 20 25  1  0
 21 22  1  0
 21 26  1  0
 22 23  2  0
 23 24  1  0
 23 25  1  0
 24 32  1  0
 26 27  1  0
 26 28  2  0
 28 33  1  0
M  END
>  <group_name>  (1) 
JNS

>  <molecule_index>  (1) 
01356

>  <conformer_index>  (1) 
05

>  <method>  (1) 
b3lyp-d3bj

>  <basis>  (1) 
dzvp

>  <program>  (1) 
psi4

>  <initial_energy>  (1) 
-2583473.0542520178 kilocalorie / mole

>  <final_energy>  (1) 
-2583544.9196859654 kilocalorie / mole

$$$$
