JNS-02157-05
     RDKit          3D

 42 45  0  0  0  0  0  0  0  0999 V2000
   -2.4711    1.1609   -1.0174 C   0  0  0  0  0  0  0  0  0  0  0  0
   -1.9629    1.2035    0.4226 C   0  0  2  0  0  0  0  0  0  0  0  0
   -2.3510    2.4955    1.1771 C   0  0  0  0  0  0  0  0  0  0  0  0
   -1.7144    2.4210    2.5310 C   0  0  0  0  0  0  0  0  0  0  0  0
   -0.7528    1.5074    2.8942 C   0  0  0  0  0  0  0  0  0  0  0  0
   -0.1597    0.5105    1.9383 C   0  0  0  0  0  0  0  0  0  0  0  0
   -0.5062    0.9546    0.5769 N   0  0  0  0  0  0  0  0  0  0  0  0
    0.3960    1.6456   -0.1837 C   0  0  0  0  0  0  0  0  0  0  0  0
    0.0968    2.4461   -1.0682 O   0  0  0  0  0  0  0  0  0  0  0  0
    1.8662    1.3976    0.0848 C   0  0  0  0  0  0  0  0  0  0  0  0
    2.6501    2.4918    0.4597 C   0  0  0  0  0  0  0  0  0  0  0  0
    4.0177    2.3142    0.6537 C   0  0  0  0  0  0  0  0  0  0  0  0
    4.6272    1.1371    0.4774 N   0  0  0  0  0  0  0  0  0  0  0  0
    3.8962    0.0904    0.1003 C   0  0  0  0  0  0  0  0  0  0  0  0
    2.5069    0.1665   -0.1070 C   0  0  0  0  0  0  0  0  0  0  0  0
    1.5837   -1.2294   -0.6076 Cl  0  0  0  0  0  0  0  0  0  0  0  0
    4.6695   -1.2151   -0.0887 C   0  0  0  0  0  0  0  0  0  0  0  0
    4.5552   -1.6750   -1.3591 F   0  0  0  0  0  0  0  0  0  0  0  0
    4.1997   -2.1846    0.7372 F   0  0  0  0  0  0  0  0  0  0  0  0
    5.9739   -1.0631    0.1705 F   0  0  0  0  0  0  0  0  0  0  0  0
   -0.4213    1.6886    4.2108 N   0  0  0  0  0  0  0  0  0  0  0  0
   -1.1246    2.6644    4.7002 N   0  0  0  0  0  0  0  0  0  0  0  0
   -1.9322    3.1341    3.6841 N   0  0  0  0  0  0  0  0  0  0  0  0
   -2.7942    4.2325    3.8981 C   0  0  0  0  0  0  0  0  0  0  0  0
   -3.2595    4.8242    2.7938 N   0  0  0  0  0  0  0  0  0  0  0  0
   -4.0740    5.8688    2.9780 C   0  0  0  0  0  0  0  0  0  0  0  0
   -4.3892    6.3024    4.2605 C   0  0  0  0  0  0  0  0  0  0  0  0
   -5.2014    7.3612    4.4485 F   0  0  0  0  0  0  0  0  0  0  0  0
   -3.8518    5.6152    5.3467 C   0  0  0  0  0  0  0  0  0  0  0  0
   -3.0524    4.5625    5.1644 N   0  0  0  0  0  0  0  0  0  0  0  0
   -3.5641    1.0936   -0.9987 H   0  0  0  0  0  0  0  0  0  0  0  0
   -2.1763    2.0417   -1.5851 H   0  0  0  0  0  0  0  0  0  0  0  0
   -2.0858    0.2746   -1.5297 H   0  0  0  0  0  0  0  0  0  0  0  0
   -2.4280    0.3646    0.9533 H   0  0  0  0  0  0  0  0  0  0  0  0
   -2.0081    3.3778    0.6293 H   0  0  0  0  0  0  0  0  0  0  0  0
   -3.4394    2.5720    1.2524 H   0  0  0  0  0  0  0  0  0  0  0  0
    0.9206    0.4553    2.0652 H   0  0  0  0  0  0  0  0  0  0  0  0
   -0.5575   -0.4972    2.1015 H   0  0  0  0  0  0  0  0  0  0  0  0
    2.1889    3.4659    0.5902 H   0  0  0  0  0  0  0  0  0  0  0  0
    4.6516    3.1438    0.9581 H   0  0  0  0  0  0  0  0  0  0  0  0
   -4.4732    6.3685    2.0977 H   0  0  0  0  0  0  0  0  0  0  0  0
   -4.0771    5.9138    6.3689 H   0  0  0  0  0  0  0  0  0  0  0  0
  1  2  1  0
  1 31  1  0
  1 32  1  0
  1 33  1  0
  2  3  1  0
  2  7  1  0
  2 34  1  1
  3  4  1  0
  3 35  1  0
  3 36  1  0
  4  5  2  0
  4 23  1  0
  5  6  1  0
  5 21  1  0
  6  7  1  0
  6 37  1  0
  6 38  1  0
  7  8  1  0
  8  9  2  0
  8 10  1  0
 10 11  2  0
 10 15  1  0
 11 12  1  0
 11 39  1  0
 12 13  2  0
 12 40  1  0
 13 14  1  0
 14 15  2  0
 14 17  1  0
 15 16  1  0
 17 18  1  0
 17 19  1  0
 17 20  1  0
 21 22  2  0
 22 23  1  0
 23 24  1  0
 24 25  2  0
 24 30  1  0
 25 26  1  0
 26 27  2  0
 26 41  1  0
 27 28  1  0
 27 29  1  0
 29 30  2  0
 29 42  1  0
M  END
>  <group_name>  (1) 
JNS

>  <molecule_index>  (1) 
02157

>  <conformer_index>  (1) 
05

>  <method>  (1) 
b3lyp-d3bj

>  <basis>  (1) 
dzvp

>  <program>  (1) 
psi4

>  <initial_energy>  (1) 
-1238229.0093821706 kilocalorie / mole

>  <final_energy>  (1) 
-1238273.3207418544 kilocalorie / mole

$$$$
