JNS-01474-02
     RDKit          3D

 39 42  0  0  0  0  0  0  0  0999 V2000
   -2.0572    1.4547    1.2289 C   0  0  0  0  0  0  0  0  0  0  0  0
   -0.5773    1.4698    0.8344 C   0  0  0  0  0  0  0  0  0  0  0  0
   -0.0707    0.0968    0.4349 C   0  0  0  0  0  0  0  0  0  0  0  0
   -0.8097   -0.3940   -0.6249 F   0  0  0  0  0  0  0  0  0  0  0  0
   -0.2747   -0.8008    1.4771 F   0  0  0  0  0  0  0  0  0  0  0  0
    1.3923    0.0599    0.0586 C   0  0  0  0  0  0  0  0  0  0  0  0
    2.2091    1.0683    0.2842 N   0  0  0  0  0  0  0  0  0  0  0  0
    3.4364    0.6519   -0.1997 C   0  0  0  0  0  0  0  0  0  0  0  0
    3.3263   -0.6595   -0.7320 C   0  0  0  0  0  0  0  0  0  0  0  0
    4.2935   -1.3746   -1.2871 N   0  0  0  0  0  0  0  0  0  0  0  0
    5.4784   -0.7536   -1.3241 C   0  0  0  0  0  0  0  0  0  0  0  0
    5.7261    0.5418   -0.8325 C   0  0  0  0  0  0  0  0  0  0  0  0
    4.6856    1.2731   -0.2534 C   0  0  0  0  0  0  0  0  0  0  0  0
    6.5895   -1.5733   -1.9535 C   0  0  0  0  0  0  0  0  0  0  0  0
    6.2782   -1.9514   -3.2137 F   0  0  0  0  0  0  0  0  0  0  0  0
    6.8398   -2.6993   -1.2463 F   0  0  0  0  0  0  0  0  0  0  0  0
    7.7516   -0.8750   -2.0190 F   0  0  0  0  0  0  0  0  0  0  0  0
    1.9979   -1.0285   -0.5533 N   0  0  0  0  0  0  0  0  0  0  0  0
    1.4371   -2.2855   -0.9605 C   0  0  0  0  0  0  0  0  0  0  0  0
    1.3973   -2.5895   -2.3119 C   0  0  0  0  0  0  0  0  0  0  0  0
    0.8836   -3.8424   -2.6877 C   0  0  0  0  0  0  0  0  0  0  0  0
    0.4242   -4.7435   -1.6899 C   0  0  0  0  0  0  0  0  0  0  0  0
   -0.0118   -5.8505   -2.3676 N   0  0  0  0  0  0  0  0  0  0  0  0
    0.1352   -5.7294   -3.7178 N   0  0  0  0  0  0  0  0  0  0  0  0
    0.6682   -4.5352   -3.9227 C   0  0  0  0  0  0  0  0  0  0  0  0
    0.4752   -4.4317   -0.3206 C   0  0  0  0  0  0  0  0  0  0  0  0
    0.9955   -3.1956    0.0293 C   0  0  0  0  0  0  0  0  0  0  0  0
   -2.2333    0.8028    2.0885 H   0  0  0  0  0  0  0  0  0  0  0  0
   -2.3749    2.4655    1.4999 H   0  0  0  0  0  0  0  0  0  0  0  0
   -2.6870    1.1117    0.4037 H   0  0  0  0  0  0  0  0  0  0  0  0
    0.0506    1.8261    1.6541 H   0  0  0  0  0  0  0  0  0  0  0  0
   -0.4012    2.1415   -0.0102 H   0  0  0  0  0  0  0  0  0  0  0  0
    6.7217    0.9622   -0.9097 H   0  0  0  0  0  0  0  0  0  0  0  0
    4.8389    2.2757    0.1347 H   0  0  0  0  0  0  0  0  0  0  0  0
    1.7586   -1.8778   -3.0476 H   0  0  0  0  0  0  0  0  0  0  0  0
   -0.4010   -6.7050   -1.9945 H   0  0  0  0  0  0  0  0  0  0  0  0
    0.8823   -4.2074   -4.9322 H   0  0  0  0  0  0  0  0  0  0  0  0
    0.1321   -5.1266    0.4403 H   0  0  0  0  0  0  0  0  0  0  0  0
    1.0635   -2.9093    1.0729 H   0  0  0  0  0  0  0  0  0  0  0  0
  1  2  1  0
  1 28  1  0
  1 29  1  0
  1 30  1  0
  2  3  1  0
  2 31  1  0
  2 32  1  0
  3  4  1  0
  3  5  1  0
  3  6  1  0
  6  7  2  0
  6 18  1  0
  7  8  1  0
  8  9  2  0
  8 13  1  0
  9 10  1  0
  9 18  1  0
 10 11  2  0
 11 12  1  0
 11 14  1  0
 12 13  2  0
 12 33  1  0
 13 34  1  0
 14 15  1  0
 14 16  1  0
 14 17  1  0
 18 19  1  0
 19 20  2  0
 19 27  1  0
 20 21  1  0
 20 35  1  0
 21 22  2  0
 21 25  1  0
 22 23  1  0
 22 26  1  0
 23 24  1  0
 23 36  1  0
 24 25  2  0
 25 37  1  0
 26 27  2  0
 26 38  1  0
 27 39  1  0
M  END
>  <group_name>  (1) 
JNS

>  <molecule_index>  (1) 
01474

>  <conformer_index>  (1) 
02

>  <method>  (1) 
b3lyp-d3bj

>  <basis>  (1) 
dzvp

>  <program>  (1) 
psi4

>  <initial_energy>  (1) 
-896234.8457936116 kilocalorie / mole

>  <final_energy>  (1) 
-896278.122742061 kilocalorie / mole

$$$$
