JNS-00617-04
     RDKit          3D

 44 48  0  0  0  0  0  0  0  0999 V2000
   -2.7869   -4.4606   -1.8921 F   0  0  0  0  0  0  0  0  0  0  0  0
   -1.8716   -4.2929   -0.8968 C   0  0  0  0  0  0  0  0  0  0  0  0
   -0.6689   -4.6191   -1.3909 F   0  0  0  0  0  0  0  0  0  0  0  0
   -2.1831   -5.2116    0.0626 F   0  0  0  0  0  0  0  0  0  0  0  0
   -1.9280   -2.8847   -0.3365 C   0  0  0  0  0  0  0  0  0  0  0  0
   -0.7834   -2.2416   -0.2251 N   0  0  0  0  0  0  0  0  0  0  0  0
   -0.8705   -0.9975    0.3033 C   0  0  0  0  0  0  0  0  0  0  0  0
    0.1404   -0.0397    0.5602 C   0  0  0  0  0  0  0  0  0  0  0  0
   -0.5284    1.0214    1.1025 N   0  0  0  0  0  0  0  0  0  0  0  0
    0.0255    2.2760    1.6125 C   0  0  0  0  0  0  0  0  0  0  0  0
   -0.1435    3.4496    0.6468 C   0  0  0  0  0  0  0  0  0  0  0  0
   -1.5849    4.0381    0.5758 C   0  0  0  0  0  0  0  0  0  0  0  0
   -1.1463    5.1724    1.5456 C   0  0  0  0  0  0  0  0  0  0  0  0
    0.3378    4.7905    1.2789 C   0  0  0  0  0  0  0  0  0  0  0  0
   -1.8739    0.8513    1.2179 N   0  0  0  0  0  0  0  0  0  0  0  0
   -2.0929   -0.3815    0.7256 C   0  0  0  0  0  0  0  0  0  0  0  0
   -3.3016   -1.1058    0.5891 C   0  0  0  0  0  0  0  0  0  0  0  0
   -3.2048   -2.3709    0.0510 C   0  0  0  0  0  0  0  0  0  0  0  0
    1.5873   -0.1508    0.3464 C   0  0  0  0  0  0  0  0  0  0  0  0
    2.1883   -1.4152    0.5721 C   0  0  0  0  0  0  0  0  0  0  0  0
    3.5541   -1.6253    0.3865 C   0  0  0  0  0  0  0  0  0  0  0  0
    4.3138   -0.5358   -0.0344 C   0  0  0  0  0  0  0  0  0  0  0  0
    5.6694   -0.3724   -0.3229 N   0  0  0  0  0  0  0  0  0  0  0  0
    5.8211    0.9346   -0.7167 C   0  0  0  0  0  0  0  0  0  0  0  0
    7.0474    1.3675   -1.0597 O   0  0  0  0  0  0  0  0  0  0  0  0
    4.7194    1.6380   -0.7121 N   0  0  0  0  0  0  0  0  0  0  0  0
    3.7384    0.7364   -0.2821 C   0  0  0  0  0  0  0  0  0  0  0  0
    2.3695    0.9297   -0.0997 C   0  0  0  0  0  0  0  0  0  0  0  0
   -0.4915    2.4802    2.5536 H   0  0  0  0  0  0  0  0  0  0  0  0
    1.0816    2.1084    1.8319 H   0  0  0  0  0  0  0  0  0  0  0  0
    0.3023    3.1962   -0.3194 H   0  0  0  0  0  0  0  0  0  0  0  0
   -1.8118    4.4163   -0.4251 H   0  0  0  0  0  0  0  0  0  0  0  0
   -2.3925    3.3773    0.8949 H   0  0  0  0  0  0  0  0  0  0  0  0
   -1.4478    4.9778    2.5792 H   0  0  0  0  0  0  0  0  0  0  0  0
   -1.4472    6.1911    1.2865 H   0  0  0  0  0  0  0  0  0  0  0  0
    1.0021    4.7152    2.1466 H   0  0  0  0  0  0  0  0  0  0  0  0
    0.8117    5.4409    0.5386 H   0  0  0  0  0  0  0  0  0  0  0  0
   -4.2538   -0.6819    0.8946 H   0  0  0  0  0  0  0  0  0  0  0  0
   -4.0877   -2.9870   -0.0867 H   0  0  0  0  0  0  0  0  0  0  0  0
    1.5629   -2.2419    0.8875 H   0  0  0  0  0  0  0  0  0  0  0  0
    3.9929   -2.6033    0.5634 H   0  0  0  0  0  0  0  0  0  0  0  0
    6.4050   -1.0649   -0.2819 H   0  0  0  0  0  0  0  0  0  0  0  0
    6.9489    2.3034   -1.3106 H   0  0  0  0  0  0  0  0  0  0  0  0
    1.9329    1.8915   -0.3396 H   0  0  0  0  0  0  0  0  0  0  0  0
  1  2  1  0
  2  3  1  0
  2  4  1  0
  2  5  1  0
  5  6  2  0
  5 18  1  0
  6  7  1  0
  7  8  2  0
  7 16  1  0
  8  9  1  0
  8 19  1  0
  9 10  1  0
  9 15  1  0
 10 11  1  0
 10 29  1  0
 10 30  1  0
 11 12  1  0
 11 14  1  0
 11 31  1  0
 12 13  1  0
 12 32  1  0
 12 33  1  0
 13 14  1  0
 13 34  1  0
 13 35  1  0
 14 36  1  0
 14 37  1  0
 15 16  2  0
 16 17  1  0
 17 18  2  0
 17 38  1  0
 18 39  1  0
 19 20  2  0
 19 28  1  0
 20 21  1  0
 20 40  1  0
 21 22  2  0
 21 41  1  0
 22 23  1  0
 22 27  1  0
 23 24  1  0
 23 42  1  0
 24 25  1  0
 24 26  2  0
 25 43  1  0
 26 27  1  0
 27 28  2  0
 28 44  1  0
M  END
>  <group_name>  (1) 
JNS

>  <molecule_index>  (1) 
00617

>  <conformer_index>  (1) 
04

>  <method>  (1) 
b3lyp-d3bj

>  <basis>  (1) 
dzvp

>  <program>  (1) 
psi4

>  <initial_energy>  (1) 
-867425.1649812661 kilocalorie / mole

>  <final_energy>  (1) 
-867483.3306837698 kilocalorie / mole

$$$$
