JNS-01614-06
     RDKit          3D

 39 42  0  0  0  0  0  0  0  0999 V2000
   -0.6232    1.2801    0.5222 C   0  0  0  0  0  0  0  0  0  0  0  0
   -0.0313    0.1385   -0.3088 C   0  0  0  0  0  0  0  0  0  0  0  0
    1.4660    0.1033   -0.2683 C   0  0  0  0  0  0  0  0  0  0  0  0
    2.2390    1.0573    0.2146 N   0  0  0  0  0  0  0  0  0  0  0  0
    3.5358    0.5920    0.0680 C   0  0  0  0  0  0  0  0  0  0  0  0
    3.5275   -0.6989   -0.5275 C   0  0  0  0  0  0  0  0  0  0  0  0
    4.5771   -1.4520   -0.8121 N   0  0  0  0  0  0  0  0  0  0  0  0
    5.7540   -0.8938   -0.4891 C   0  0  0  0  0  0  0  0  0  0  0  0
    5.9066    0.3713    0.1012 C   0  0  0  0  0  0  0  0  0  0  0  0
    4.7748    1.1431    0.3921 C   0  0  0  0  0  0  0  0  0  0  0  0
    6.9585   -1.7541   -0.8117 C   0  0  0  0  0  0  0  0  0  0  0  0
    6.9274   -2.9322   -0.1434 F   0  0  0  0  0  0  0  0  0  0  0  0
    8.1216   -1.1376   -0.4775 F   0  0  0  0  0  0  0  0  0  0  0  0
    7.0294   -2.0483   -2.1312 F   0  0  0  0  0  0  0  0  0  0  0  0
    2.1859   -0.9931   -0.7401 N   0  0  0  0  0  0  0  0  0  0  0  0
    1.6683   -2.1907   -1.3242 C   0  0  0  0  0  0  0  0  0  0  0  0
    1.8179   -3.3948   -0.6562 C   0  0  0  0  0  0  0  0  0  0  0  0
    1.3065   -4.5497   -1.2770 C   0  0  0  0  0  0  0  0  0  0  0  0
    0.6616   -4.4453   -2.5362 C   0  0  0  0  0  0  0  0  0  0  0  0
    0.2775   -5.7201   -2.8613 N   0  0  0  0  0  0  0  0  0  0  0  0
    0.6305   -6.6307   -1.9103 N   0  0  0  0  0  0  0  0  0  0  0  0
    1.2450   -5.9447   -0.9583 C   0  0  0  0  0  0  0  0  0  0  0  0
    0.5124   -3.2253   -3.2283 C   0  0  0  0  0  0  0  0  0  0  0  0
   -0.1579   -3.1636   -4.5763 C   0  0  0  0  0  0  0  0  0  0  0  0
    1.0383   -2.1092   -2.5920 C   0  0  0  0  0  0  0  0  0  0  0  0
   -1.7150    1.2647    0.4521 H   0  0  0  0  0  0  0  0  0  0  0  0
   -0.2625    2.2490    0.1697 H   0  0  0  0  0  0  0  0  0  0  0  0
   -0.3403    1.1866    1.5739 H   0  0  0  0  0  0  0  0  0  0  0  0
   -0.4110   -0.8317    0.0333 H   0  0  0  0  0  0  0  0  0  0  0  0
   -0.3564    0.2261   -1.3532 H   0  0  0  0  0  0  0  0  0  0  0  0
    6.8997    0.7404    0.3284 H   0  0  0  0  0  0  0  0  0  0  0  0
    4.8572    2.1247    0.8495 H   0  0  0  0  0  0  0  0  0  0  0  0
    2.3223   -3.4342    0.3040 H   0  0  0  0  0  0  0  0  0  0  0  0
   -0.1955   -6.0444   -3.6929 H   0  0  0  0  0  0  0  0  0  0  0  0
    1.6236   -6.4590   -0.0839 H   0  0  0  0  0  0  0  0  0  0  0  0
    0.3672   -3.7875   -5.3097 H   0  0  0  0  0  0  0  0  0  0  0  0
   -0.1762   -2.1417   -4.9624 H   0  0  0  0  0  0  0  0  0  0  0  0
   -1.1941   -3.5196   -4.5231 H   0  0  0  0  0  0  0  0  0  0  0  0
    0.9845   -1.1396   -3.0799 H   0  0  0  0  0  0  0  0  0  0  0  0
  1  2  1  0
  1 26  1  0
  1 27  1  0
  1 28  1  0
  2  3  1  0
  2 29  1  0
  2 30  1  0
  3  4  2  0
  3 15  1  0
  4  5  1  0
  5  6  2  0
  5 10  1  0
  6  7  1  0
  6 15  1  0
  7  8  2  0
  8  9  1  0
  8 11  1  0
  9 10  2  0
  9 31  1  0
 10 32  1  0
 11 12  1  0
 11 13  1  0
 11 14  1  0
 15 16  1  0
 16 17  2  0
 16 25  1  0
 17 18  1  0
 17 33  1  0
 18 19  2  0
 18 22  1  0
 19 20  1  0
 19 23  1  0
 20 21  1  0
 20 34  1  0
 21 22  2  0
 22 35  1  0
 23 24  1  0
 23 25  2  0
 24 36  1  0
 24 37  1  0
 24 38  1  0
 25 39  1  0
M  END
>  <group_name>  (1) 
JNS

>  <molecule_index>  (1) 
01614

>  <conformer_index>  (1) 
06

>  <method>  (1) 
b3lyp-d3bj

>  <basis>  (1) 
dzvp

>  <program>  (1) 
psi4

>  <initial_energy>  (1) 
-771651.7810953533 kilocalorie / mole

>  <final_energy>  (1) 
-771705.0435238264 kilocalorie / mole

$$$$
