JNS-01594-04
     RDKit          3D

 39 42  0  0  0  0  0  0  0  0999 V2000
   -0.6201   -0.7326    1.1500 C   0  0  0  0  0  0  0  0  0  0  0  0
   -0.0777   -0.1646   -0.1763 C   0  0  0  0  0  0  0  0  0  0  0  0
   -0.4951   -1.0434   -1.3687 C   0  0  0  0  0  0  0  0  0  0  0  0
    1.4192   -0.0456   -0.1170 C   0  0  0  0  0  0  0  0  0  0  0  0
    2.2449   -1.0741   -0.1461 N   0  0  0  0  0  0  0  0  0  0  0  0
    3.5186   -0.5359   -0.0893 C   0  0  0  0  0  0  0  0  0  0  0  0
    3.4456    0.8810   -0.0244 C   0  0  0  0  0  0  0  0  0  0  0  0
    4.4568    1.7317    0.0300 N   0  0  0  0  0  0  0  0  0  0  0  0
    5.6642    1.1463    0.0250 C   0  0  0  0  0  0  0  0  0  0  0  0
    5.8809   -0.2405   -0.0312 C   0  0  0  0  0  0  0  0  0  0  0  0
    4.7882   -1.1138   -0.0903 C   0  0  0  0  0  0  0  0  0  0  0  0
    6.8256    2.1175    0.0833 C   0  0  0  0  0  0  0  0  0  0  0  0
    6.7941    2.8727    1.2061 F   0  0  0  0  0  0  0  0  0  0  0  0
    8.0204    1.4732    0.0683 F   0  0  0  0  0  0  0  0  0  0  0  0
    6.8192    2.9697   -0.9695 F   0  0  0  0  0  0  0  0  0  0  0  0
    2.0859    1.1790   -0.0331 N   0  0  0  0  0  0  0  0  0  0  0  0
    1.5337    2.4932    0.0242 C   0  0  0  0  0  0  0  0  0  0  0  0
    0.7151    2.8590    1.0825 C   0  0  0  0  0  0  0  0  0  0  0  0
    0.1848    4.1620    1.0896 C   0  0  0  0  0  0  0  0  0  0  0  0
    0.5147    5.0663    0.0454 C   0  0  0  0  0  0  0  0  0  0  0  0
   -0.1298    6.2333    0.3365 N   0  0  0  0  0  0  0  0  0  0  0  0
   -0.8482    6.1529    1.4903 N   0  0  0  0  0  0  0  0  0  0  0  0
   -0.6710    4.9238    1.9506 C   0  0  0  0  0  0  0  0  0  0  0  0
    1.3604    4.6836   -1.0064 C   0  0  0  0  0  0  0  0  0  0  0  0
    1.7840    5.9406   -2.3810 Br  0  0  0  0  0  0  0  0  0  0  0  0
    1.8645    3.3971   -1.0180 C   0  0  0  0  0  0  0  0  0  0  0  0
   -0.3444   -0.1039    2.0029 H   0  0  0  0  0  0  0  0  0  0  0  0
   -1.7123   -0.7962    1.1135 H   0  0  0  0  0  0  0  0  0  0  0  0
   -0.2175   -1.7342    1.3255 H   0  0  0  0  0  0  0  0  0  0  0  0
   -0.4914    0.8380   -0.3203 H   0  0  0  0  0  0  0  0  0  0  0  0
   -0.1406   -0.6216   -2.3143 H   0  0  0  0  0  0  0  0  0  0  0  0
   -0.0779   -2.0484   -1.2679 H   0  0  0  0  0  0  0  0  0  0  0  0
   -1.5864   -1.1176   -1.4134 H   0  0  0  0  0  0  0  0  0  0  0  0
    6.8943   -0.6242   -0.0306 H   0  0  0  0  0  0  0  0  0  0  0  0
    4.9218   -2.1906   -0.1368 H   0  0  0  0  0  0  0  0  0  0  0  0
    0.5040    2.1565    1.8823 H   0  0  0  0  0  0  0  0  0  0  0  0
   -0.1120    7.0998   -0.1845 H   0  0  0  0  0  0  0  0  0  0  0  0
   -1.1508    4.6190    2.8723 H   0  0  0  0  0  0  0  0  0  0  0  0
    2.5249    3.0705   -1.8133 H   0  0  0  0  0  0  0  0  0  0  0  0
  1  2  1  0
  1 27  1  0
  1 28  1  0
  1 29  1  0
  2  3  1  0
  2  4  1  0
  2 30  1  0
  3 31  1  0
  3 32  1  0
  3 33  1  0
  4  5  2  0
  4 16  1  0
  5  6  1  0
  6  7  2  0
  6 11  1  0
  7  8  1  0
  7 16  1  0
  8  9  2  0
  9 10  1  0
  9 12  1  0
 10 11  2  0
 10 34  1  0
 11 35  1  0
 12 13  1  0
 12 14  1  0
 12 15  1  0
 16 17  1  0
 17 18  2  0
 17 26  1  0
 18 19  1  0
 18 36  1  0
 19 20  2  0
 19 23  1  0
 20 21  1  0
 20 24  1  0
 21 22  1  0
 21 37  1  0
 22 23  2  0
 23 38  1  0
 24 25  1  0
 24 26  2  0
 26 39  1  0
M  END
>  <group_name>  (1) 
JNS

>  <molecule_index>  (1) 
01594

>  <conformer_index>  (1) 
04

>  <method>  (1) 
b3lyp-d3bj

>  <basis>  (1) 
dzvp

>  <program>  (1) 
psi4

>  <initial_energy>  (1) 
-2386336.998620902 kilocalorie / mole

>  <final_energy>  (1) 
-2386341.7585735107 kilocalorie / mole

$$$$
