JNS-01658-02
     RDKit          3D

 38 41  0  0  0  0  0  0  0  0999 V2000
   -0.1661   -2.3815    1.3384 C   0  0  0  0  0  0  0  0  0  0  0  0
   -0.7550   -1.0900    0.8780 C   0  0  0  0  0  0  0  0  0  0  0  0
   -2.0468   -0.8202    0.8639 N   0  0  0  0  0  0  0  0  0  0  0  0
   -2.1502    0.4600    0.3448 C   0  0  0  0  0  0  0  0  0  0  0  0
   -0.8596    0.9671    0.0344 C   0  0  0  0  0  0  0  0  0  0  0  0
   -0.5722    2.1483   -0.4878 N   0  0  0  0  0  0  0  0  0  0  0  0
   -1.6460    2.9163   -0.7275 C   0  0  0  0  0  0  0  0  0  0  0  0
   -2.9741    2.5420   -0.4656 C   0  0  0  0  0  0  0  0  0  0  0  0
   -3.2452    1.2834    0.0846 C   0  0  0  0  0  0  0  0  0  0  0  0
   -1.3200    4.2671   -1.3305 C   0  0  0  0  0  0  0  0  0  0  0  0
   -0.5099    4.9959   -0.5278 F   0  0  0  0  0  0  0  0  0  0  0  0
   -0.6886    4.1436   -2.5237 F   0  0  0  0  0  0  0  0  0  0  0  0
   -2.4385    5.0051   -1.5467 F   0  0  0  0  0  0  0  0  0  0  0  0
    0.0271   -0.0430    0.3926 N   0  0  0  0  0  0  0  0  0  0  0  0
    1.4474    0.0043    0.2590 C   0  0  0  0  0  0  0  0  0  0  0  0
    2.2606   -0.1415    1.3929 C   0  0  0  0  0  0  0  0  0  0  0  0
    3.6363   -0.0879    1.2264 C   0  0  0  0  0  0  0  0  0  0  0  0
    4.1798    0.1321   -0.0506 C   0  0  0  0  0  0  0  0  0  0  0  0
    5.5798    0.1598    0.0439 N   0  0  0  0  0  0  0  0  0  0  0  0
    6.0276   -0.0264    1.3469 C   0  0  0  0  0  0  0  0  0  0  0  0
    7.1931   -0.0424    1.7014 O   0  0  0  0  0  0  0  0  0  0  0  0
    4.7703   -0.2020    2.2146 C   0  0  0  0  0  0  0  0  0  0  0  0
    3.3916    0.3012   -1.1919 C   0  0  0  0  0  0  0  0  0  0  0  0
    4.0094    0.5565   -2.5438 C   0  0  0  0  0  0  0  0  0  0  0  0
    2.0047    0.2241   -1.0048 C   0  0  0  0  0  0  0  0  0  0  0  0
   -0.9617   -3.1257    1.3897 H   0  0  0  0  0  0  0  0  0  0  0  0
    0.2815   -2.2858    2.3332 H   0  0  0  0  0  0  0  0  0  0  0  0
    0.6173   -2.7247    0.6567 H   0  0  0  0  0  0  0  0  0  0  0  0
   -3.7796    3.2301   -0.6934 H   0  0  0  0  0  0  0  0  0  0  0  0
   -4.2603    0.9616    0.2978 H   0  0  0  0  0  0  0  0  0  0  0  0
    1.8142   -0.2751    2.3740 H   0  0  0  0  0  0  0  0  0  0  0  0
    6.2213    0.3151   -0.7236 H   0  0  0  0  0  0  0  0  0  0  0  0
    4.7564    0.5729    2.9876 H   0  0  0  0  0  0  0  0  0  0  0  0
    4.8158   -1.1700    2.7232 H   0  0  0  0  0  0  0  0  0  0  0  0
    3.2423    0.6584   -3.3147 H   0  0  0  0  0  0  0  0  0  0  0  0
    4.6756   -0.2622   -2.8422 H   0  0  0  0  0  0  0  0  0  0  0  0
    4.6004    1.4803   -2.5425 H   0  0  0  0  0  0  0  0  0  0  0  0
    1.3414    0.3529   -1.8545 H   0  0  0  0  0  0  0  0  0  0  0  0
  1  2  1  0
  1 26  1  0
  1 27  1  0
  1 28  1  0
  2  3  2  0
  2 14  1  0
  3  4  1  0
  4  5  2  0
  4  9  1  0
  5  6  1  0
  5 14  1  0
  6  7  2  0
  7  8  1  0
  7 10  1  0
  8  9  2  0
  8 29  1  0
  9 30  1  0
 10 11  1  0
 10 12  1  0
 10 13  1  0
 14 15  1  0
 15 16  2  0
 15 25  1  0
 16 17  1  0
 16 31  1  0
 17 18  2  0
 17 22  1  0
 18 19  1  0
 18 23  1  0
 19 20  1  0
 19 32  1  0
 20 21  2  0
 20 22  1  0
 22 33  1  0
 22 34  1  0
 23 24  1  0
 23 25  2  0
 24 35  1  0
 24 36  1  0
 24 37  1  0
 25 38  1  0
M  END
>  <group_name>  (1) 
JNS

>  <molecule_index>  (1) 
01658

>  <conformer_index>  (1) 
02

>  <method>  (1) 
b3lyp-d3bj

>  <basis>  (1) 
dzvp

>  <program>  (1) 
psi4

>  <initial_energy>  (1) 
-784161.111502541 kilocalorie / mole

>  <final_energy>  (1) 
-784200.7455795299 kilocalorie / mole

$$$$
