JNS-01002-02
     RDKit          3D

 37 38  0  0  0  0  0  0  0  0999 V2000
   -3.0349   -2.3103    0.1092 C   0  0  0  0  0  0  0  0  0  0  0  0
   -2.1516   -1.0908    0.0222 C   0  0  0  0  0  0  0  0  0  0  0  0
   -2.7695    0.0663   -0.2641 N   0  0  0  0  0  0  0  0  0  0  0  0
   -1.9996    1.1581   -0.3442 C   0  0  0  0  0  0  0  0  0  0  0  0
   -0.6270    1.1869   -0.1597 C   0  0  0  0  0  0  0  0  0  0  0  0
    0.0300   -0.0275    0.1422 C   0  0  0  0  0  0  0  0  0  0  0  0
    1.3954   -0.0519    0.3050 N   0  0  0  0  0  0  0  0  0  0  0  0
    2.1033   -1.1940    0.8710 C   0  0  0  0  0  0  0  0  0  0  0  0
    3.6035   -0.9171    0.9827 C   0  0  2  0  0  0  0  0  0  0  0  0
    4.2710   -0.7056   -0.3868 C   0  0  0  0  0  0  0  0  0  0  0  0
    5.7884   -0.5262   -0.2419 C   0  0  0  0  0  0  0  0  0  0  0  0
    6.3993   -1.6908    0.5530 C   0  0  0  0  0  0  0  0  0  0  0  0
    5.7577   -1.9224    1.8541 N   0  0  0  0  0  0  0  0  0  0  0  0
    4.3052   -2.0674    1.7346 C   0  0  0  0  0  0  0  0  0  0  0  0
   -0.7707   -1.1820    0.2351 C   0  0  0  0  0  0  0  0  0  0  0  0
   -2.7574    2.4357   -0.6599 C   0  0  0  0  0  0  0  0  0  0  0  0
   -1.9254    3.5091   -0.7485 F   0  0  0  0  0  0  0  0  0  0  0  0
   -3.6708    2.7233    0.2958 F   0  0  0  0  0  0  0  0  0  0  0  0
   -3.4181    2.3499   -1.8359 F   0  0  0  0  0  0  0  0  0  0  0  0
   -3.8149   -2.1544    0.8606 H   0  0  0  0  0  0  0  0  0  0  0  0
   -3.5386   -2.4752   -0.8485 H   0  0  0  0  0  0  0  0  0  0  0  0
   -2.4683   -3.2083    0.3681 H   0  0  0  0  0  0  0  0  0  0  0  0
   -0.0728    2.1155   -0.2483 H   0  0  0  0  0  0  0  0  0  0  0  0
    1.8251    0.8497    0.4709 H   0  0  0  0  0  0  0  0  0  0  0  0
    1.6957   -1.4533    1.8614 H   0  0  0  0  0  0  0  0  0  0  0  0
    1.9482   -2.0642    0.2213 H   0  0  0  0  0  0  0  0  0  0  0  0
    3.7391   -0.0024    1.5829 H   0  0  0  0  0  0  0  0  0  0  0  0
    3.8287    0.1507   -0.9070 H   0  0  0  0  0  0  0  0  0  0  0  0
    4.0670   -1.5853   -1.0137 H   0  0  0  0  0  0  0  0  0  0  0  0
    6.2586   -0.4555   -1.2302 H   0  0  0  0  0  0  0  0  0  0  0  0
    6.0004    0.4183    0.2785 H   0  0  0  0  0  0  0  0  0  0  0  0
    7.4693   -1.5301    0.7213 H   0  0  0  0  0  0  0  0  0  0  0  0
    6.3056   -2.6171   -0.0298 H   0  0  0  0  0  0  0  0  0  0  0  0
    5.9635   -1.1366    2.4700 H   0  0  0  0  0  0  0  0  0  0  0  0
    3.8849   -2.1760    2.7409 H   0  0  0  0  0  0  0  0  0  0  0  0
    4.1078   -3.0103    1.2054 H   0  0  0  0  0  0  0  0  0  0  0  0
   -0.3321   -2.1446    0.4718 H   0  0  0  0  0  0  0  0  0  0  0  0
  1  2  1  0
  1 20  1  0
  1 21  1  0
  1 22  1  0
  2  3  2  0
  2 15  1  0
  3  4  1  0
  4  5  2  0
  4 16  1  0
  5  6  1  0
  5 23  1  0
  6  7  1  0
  6 15  2  0
  7  8  1  0
  7 24  1  0
  8  9  1  0
  8 25  1  0
  8 26  1  0
  9 10  1  0
  9 14  1  0
  9 27  1  1
 10 11  1  0
 10 28  1  0
 10 29  1  0
 11 12  1  0
 11 30  1  0
 11 31  1  0
 12 13  1  0
 12 32  1  0
 12 33  1  0
 13 14  1  0
 13 34  1  0
 14 35  1  0
 14 36  1  0
 15 37  1  0
 16 17  1  0
 16 18  1  0
 16 19  1  0
M  END
>  <group_name>  (1) 
JNS

>  <molecule_index>  (1) 
01002

>  <conformer_index>  (1) 
02

>  <method>  (1) 
b3lyp-d3bj

>  <basis>  (1) 
dzvp

>  <program>  (1) 
psi4

>  <initial_energy>  (1) 
-608783.1977925312 kilocalorie / mole

>  <final_energy>  (1) 
-608825.8439812976 kilocalorie / mole

$$$$
