JNS-01474-04
     RDKit          3D

 39 42  0  0  0  0  0  0  0  0999 V2000
   -2.1272    1.7087    0.2611 C   0  0  0  0  0  0  0  0  0  0  0  0
   -0.5987    1.6164    0.2362 C   0  0  0  0  0  0  0  0  0  0  0  0
   -0.1082    0.2252   -0.1190 C   0  0  0  0  0  0  0  0  0  0  0  0
   -0.6003   -0.1510   -1.3548 F   0  0  0  0  0  0  0  0  0  0  0  0
   -0.6218   -0.6988    0.7837 F   0  0  0  0  0  0  0  0  0  0  0  0
    1.3965    0.0853   -0.1392 C   0  0  0  0  0  0  0  0  0  0  0  0
    2.2012    1.0119    0.3389 N   0  0  0  0  0  0  0  0  0  0  0  0
    3.4780    0.5267    0.1198 C   0  0  0  0  0  0  0  0  0  0  0  0
    3.4112   -0.7399   -0.5177 C   0  0  0  0  0  0  0  0  0  0  0  0
    4.4336   -1.4948   -0.8928 N   0  0  0  0  0  0  0  0  0  0  0  0
    5.6317   -0.9664   -0.6153 C   0  0  0  0  0  0  0  0  0  0  0  0
    5.8400    0.2736    0.0171 C   0  0  0  0  0  0  0  0  0  0  0  0
    4.7421    1.0492    0.3990 C   0  0  0  0  0  0  0  0  0  0  0  0
    6.8058   -1.8202   -1.0566 C   0  0  0  0  0  0  0  0  0  0  0  0
    6.8134   -1.9974   -2.3991 F   0  0  0  0  0  0  0  0  0  0  0  0
    7.9920   -1.2515   -0.7219 F   0  0  0  0  0  0  0  0  0  0  0  0
    6.7754   -3.0466   -0.4907 F   0  0  0  0  0  0  0  0  0  0  0  0
    2.0570   -1.0136   -0.6705 N   0  0  0  0  0  0  0  0  0  0  0  0
    1.5227   -2.2015   -1.2731 C   0  0  0  0  0  0  0  0  0  0  0  0
    0.7864   -3.0934   -0.5112 C   0  0  0  0  0  0  0  0  0  0  0  0
    0.2867   -4.2423   -1.1502 C   0  0  0  0  0  0  0  0  0  0  0  0
    0.5660   -4.4636   -2.5251 C   0  0  0  0  0  0  0  0  0  0  0  0
   -0.0431   -5.6491   -2.8380 N   0  0  0  0  0  0  0  0  0  0  0  0
   -0.6886   -6.2032   -1.7726 N   0  0  0  0  0  0  0  0  0  0  0  0
   -0.4994   -5.3734   -0.7582 C   0  0  0  0  0  0  0  0  0  0  0  0
    1.3305   -3.5629   -3.2874 C   0  0  0  0  0  0  0  0  0  0  0  0
    1.7998   -2.4303   -2.6433 C   0  0  0  0  0  0  0  0  0  0  0  0
   -2.5582    1.4619   -0.7128 H   0  0  0  0  0  0  0  0  0  0  0  0
   -2.5550    1.0331    1.0064 H   0  0  0  0  0  0  0  0  0  0  0  0
   -2.4288    2.7287    0.5161 H   0  0  0  0  0  0  0  0  0  0  0  0
   -0.1738    2.3090   -0.4954 H   0  0  0  0  0  0  0  0  0  0  0  0
   -0.1670    1.8799    1.2044 H   0  0  0  0  0  0  0  0  0  0  0  0
    6.8508    0.6175    0.2009 H   0  0  0  0  0  0  0  0  0  0  0  0
    4.8643    2.0118    0.8867 H   0  0  0  0  0  0  0  0  0  0  0  0
    0.5979   -2.8994    0.5391 H   0  0  0  0  0  0  0  0  0  0  0  0
   -0.0606   -6.1339   -3.7243 H   0  0  0  0  0  0  0  0  0  0  0  0
   -0.9253   -5.6021    0.2108 H   0  0  0  0  0  0  0  0  0  0  0  0
    1.5480   -3.7383   -4.3369 H   0  0  0  0  0  0  0  0  0  0  0  0
    2.3952   -1.7024   -3.1847 H   0  0  0  0  0  0  0  0  0  0  0  0
  1  2  1  0
  1 28  1  0
  1 29  1  0
  1 30  1  0
  2  3  1  0
  2 31  1  0
  2 32  1  0
  3  4  1  0
  3  5  1  0
  3  6  1  0
  6  7  2  0
  6 18  1  0
  7  8  1  0
  8  9  2  0
  8 13  1  0
  9 10  1  0
  9 18  1  0
 10 11  2  0
 11 12  1  0
 11 14  1  0
 12 13  2  0
 12 33  1  0
 13 34  1  0
 14 15  1  0
 14 16  1  0
 14 17  1  0
 18 19  1  0
 19 20  2  0
 19 27  1  0
 20 21  1  0
 20 35  1  0
 21 22  2  0
 21 25  1  0
 22 23  1  0
 22 26  1  0
 23 24  1  0
 23 36  1  0
 24 25  2  0
 25 37  1  0
 26 27  2  0
 26 38  1  0
 27 39  1  0
M  END
>  <group_name>  (1) 
JNS

>  <molecule_index>  (1) 
01474

>  <conformer_index>  (1) 
04

>  <method>  (1) 
b3lyp-d3bj

>  <basis>  (1) 
dzvp

>  <program>  (1) 
psi4

>  <initial_energy>  (1) 
-896209.6285553623 kilocalorie / mole

>  <final_energy>  (1) 
-896278.3158952072 kilocalorie / mole

$$$$
