JNS-01658-04
     RDKit          3D

 38 41  0  0  0  0  0  0  0  0999 V2000
   -0.3015   -2.6210    0.1157 C   0  0  0  0  0  0  0  0  0  0  0  0
   -0.8326   -1.2285    0.0340 C   0  0  0  0  0  0  0  0  0  0  0  0
   -2.1163   -0.9227    0.0075 N   0  0  0  0  0  0  0  0  0  0  0  0
   -2.1655    0.4608   -0.0369 C   0  0  0  0  0  0  0  0  0  0  0  0
   -0.8498    0.9961   -0.0325 C   0  0  0  0  0  0  0  0  0  0  0  0
   -0.5104    2.2748   -0.0505 N   0  0  0  0  0  0  0  0  0  0  0  0
   -1.5532    3.1182   -0.0806 C   0  0  0  0  0  0  0  0  0  0  0  0
   -2.9015    2.7250   -0.0946 C   0  0  0  0  0  0  0  0  0  0  0  0
   -3.2279    1.3636   -0.0725 C   0  0  0  0  0  0  0  0  0  0  0  0
   -1.1647    4.5824   -0.0909 C   0  0  0  0  0  0  0  0  0  0  0  0
   -2.2534    5.3927   -0.1043 F   0  0  0  0  0  0  0  0  0  0  0  0
   -0.4353    4.9139    1.0024 F   0  0  0  0  0  0  0  0  0  0  0  0
   -0.4186    4.8989   -1.1752 F   0  0  0  0  0  0  0  0  0  0  0  0
   -0.0034   -0.1076    0.0031 N   0  0  0  0  0  0  0  0  0  0  0  0
    1.4227   -0.0592    0.0254 C   0  0  0  0  0  0  0  0  0  0  0  0
    2.0644    0.7084    1.0102 C   0  0  0  0  0  0  0  0  0  0  0  0
    3.4483    0.7632    0.9986 C   0  0  0  0  0  0  0  0  0  0  0  0
    4.1745    0.0530    0.0265 C   0  0  0  0  0  0  0  0  0  0  0  0
    5.5460    0.2685    0.2288 N   0  0  0  0  0  0  0  0  0  0  0  0
    5.7971    1.1154    1.3039 C   0  0  0  0  0  0  0  0  0  0  0  0
    6.8997    1.4660    1.6854 O   0  0  0  0  0  0  0  0  0  0  0  0
    4.4255    1.4963    1.8829 C   0  0  0  0  0  0  0  0  0  0  0  0
    3.5609   -0.7166   -0.9641 C   0  0  0  0  0  0  0  0  0  0  0  0
    4.3697   -1.4525   -2.0033 C   0  0  0  0  0  0  0  0  0  0  0  0
    2.1583   -0.7437   -0.9470 C   0  0  0  0  0  0  0  0  0  0  0  0
   -1.1044   -3.2763    0.4557 H   0  0  0  0  0  0  0  0  0  0  0  0
    0.0415   -2.9774   -0.8612 H   0  0  0  0  0  0  0  0  0  0  0  0
    0.5444   -2.6837    0.8058 H   0  0  0  0  0  0  0  0  0  0  0  0
   -3.6794    3.4791   -0.1187 H   0  0  0  0  0  0  0  0  0  0  0  0
   -4.2599    1.0252   -0.0793 H   0  0  0  0  0  0  0  0  0  0  0  0
    1.4794    1.2538    1.7435 H   0  0  0  0  0  0  0  0  0  0  0  0
    6.2952   -0.1117   -0.3357 H   0  0  0  0  0  0  0  0  0  0  0  0
    4.3799    1.1968    2.9346 H   0  0  0  0  0  0  0  0  0  0  0  0
    4.3080    2.5840    1.8482 H   0  0  0  0  0  0  0  0  0  0  0  0
    3.7224   -1.9897   -2.7006 H   0  0  0  0  0  0  0  0  0  0  0  0
    4.9883   -0.7633   -2.5907 H   0  0  0  0  0  0  0  0  0  0  0  0
    5.0414   -2.1867   -1.5421 H   0  0  0  0  0  0  0  0  0  0  0  0
    1.6297   -1.2956   -1.7189 H   0  0  0  0  0  0  0  0  0  0  0  0
  1  2  1  0
  1 26  1  0
  1 27  1  0
  1 28  1  0
  2  3  2  0
  2 14  1  0
  3  4  1  0
  4  5  2  0
  4  9  1  0
  5  6  1  0
  5 14  1  0
  6  7  2  0
  7  8  1  0
  7 10  1  0
  8  9  2  0
  8 29  1  0
  9 30  1  0
 10 11  1  0
 10 12  1  0
 10 13  1  0
 14 15  1  0
 15 16  2  0
 15 25  1  0
 16 17  1  0
 16 31  1  0
 17 18  2  0
 17 22  1  0
 18 19  1  0
 18 23  1  0
 19 20  1  0
 19 32  1  0
 20 21  2  0
 20 22  1  0
 22 33  1  0
 22 34  1  0
 23 24  1  0
 23 25  2  0
 24 35  1  0
 24 36  1  0
 24 37  1  0
 25 38  1  0
M  END
>  <group_name>  (1) 
JNS

>  <molecule_index>  (1) 
01658

>  <conformer_index>  (1) 
04

>  <method>  (1) 
b3lyp-d3bj

>  <basis>  (1) 
dzvp

>  <program>  (1) 
psi4

>  <initial_energy>  (1) 
-784193.9132458953 kilocalorie / mole

>  <final_energy>  (1) 
-784200.7616308801 kilocalorie / mole

$$$$
