JNS-01596-01
     RDKit          3D

 37 41  0  0  0  0  0  0  0  0999 V2000
   -3.8947    1.9025    1.1452 F   0  0  0  0  0  0  0  0  0  0  0  0
   -3.5475    0.6335    0.9322 C   0  0  0  0  0  0  0  0  0  0  0  0
   -4.4477   -0.3625    1.0611 N   0  0  0  0  0  0  0  0  0  0  0  0
   -3.9365   -1.5974    0.8075 N   0  0  0  0  0  0  0  0  0  0  0  0
   -2.6457   -1.3420    0.5038 C   0  0  0  0  0  0  0  0  0  0  0  0
   -2.3323    0.0635    0.5637 C   0  0  0  0  0  0  0  0  0  0  0  0
   -1.0321    0.5477    0.2730 C   0  0  0  0  0  0  0  0  0  0  0  0
   -0.0760   -0.3848   -0.0572 C   0  0  0  0  0  0  0  0  0  0  0  0
   -0.3670   -1.7901   -0.0940 C   0  0  0  0  0  0  0  0  0  0  0  0
   -1.6258   -2.2742    0.1675 C   0  0  0  0  0  0  0  0  0  0  0  0
    1.2624    0.0373   -0.3131 N   0  0  0  0  0  0  0  0  0  0  0  0
    2.0761   -0.2927   -1.3965 C   0  0  0  0  0  0  0  0  0  0  0  0
    3.2992    0.1991   -1.2926 N   0  0  0  0  0  0  0  0  0  0  0  0
    3.3182    0.8950   -0.0981 C   0  0  0  0  0  0  0  0  0  0  0  0
    2.0468    0.8188    0.5338 C   0  0  0  0  0  0  0  0  0  0  0  0
    1.6920    1.3786    1.6770 N   0  0  0  0  0  0  0  0  0  0  0  0
    2.6704    2.0781    2.2739 C   0  0  0  0  0  0  0  0  0  0  0  0
    3.9694    2.2299    1.7644 C   0  0  0  0  0  0  0  0  0  0  0  0
    4.3136    1.6276    0.5479 C   0  0  0  0  0  0  0  0  0  0  0  0
    2.2625    2.7244    3.5810 C   0  0  0  0  0  0  0  0  0  0  0  0
    3.2801    3.4361    4.1300 F   0  0  0  0  0  0  0  0  0  0  0  0
    1.2234    3.5788    3.4157 F   0  0  0  0  0  0  0  0  0  0  0  0
    1.8774    1.8069    4.4991 F   0  0  0  0  0  0  0  0  0  0  0  0
    1.5924   -1.1023   -2.5253 C   0  0  0  0  0  0  0  0  0  0  0  0
    2.4065   -2.3286   -2.9455 C   0  0  0  0  0  0  0  0  0  0  0  0
    2.3958   -1.1038   -3.8130 C   0  0  0  0  0  0  0  0  0  0  0  0
   -5.4216   -0.2664    1.3243 H   0  0  0  0  0  0  0  0  0  0  0  0
   -0.7908    1.6033    0.3259 H   0  0  0  0  0  0  0  0  0  0  0  0
    0.4422   -2.4759   -0.3257 H   0  0  0  0  0  0  0  0  0  0  0  0
   -1.8430   -3.3376    0.1412 H   0  0  0  0  0  0  0  0  0  0  0  0
    4.6957    2.8162    2.3148 H   0  0  0  0  0  0  0  0  0  0  0  0
    5.3085    1.7283    0.1244 H   0  0  0  0  0  0  0  0  0  0  0  0
    0.5147   -1.1843   -2.6100 H   0  0  0  0  0  0  0  0  0  0  0  0
    3.3044   -2.5278   -2.3695 H   0  0  0  0  0  0  0  0  0  0  0  0
    1.8476   -3.2039   -3.2633 H   0  0  0  0  0  0  0  0  0  0  0  0
    3.2857   -0.4841   -3.8178 H   0  0  0  0  0  0  0  0  0  0  0  0
    1.8301   -1.1293   -4.7391 H   0  0  0  0  0  0  0  0  0  0  0  0
  1  2  1  0
  2  3  1  0
  2  6  2  0
  3  4  1  0
  3 27  1  0
  4  5  2  0
  5  6  1  0
  5 10  1  0
  6  7  1  0
  7  8  2  0
  7 28  1  0
  8  9  1  0
  8 11  1  0
  9 10  2  0
  9 29  1  0
 10 30  1  0
 11 12  1  0
 11 15  1  0
 12 13  2  0
 12 24  1  0
 13 14  1  0
 14 15  2  0
 14 19  1  0
 15 16  1  0
 16 17  2  0
 17 18  1  0
 17 20  1  0
 18 19  2  0
 18 31  1  0
 19 32  1  0
 20 21  1  0
 20 22  1  0
 20 23  1  0
 24 25  1  0
 24 26  1  0
 24 33  1  0
 25 26  1  0
 25 34  1  0
 25 35  1  0
 26 36  1  0
 26 37  1  0
M  END
>  <group_name>  (1) 
JNS

>  <molecule_index>  (1) 
01596

>  <conformer_index>  (1) 
01

>  <method>  (1) 
b3lyp-d3bj

>  <basis>  (1) 
dzvp

>  <program>  (1) 
psi4

>  <initial_energy>  (1) 
-833157.5230385466 kilocalorie / mole

>  <final_energy>  (1) 
-833195.8236994403 kilocalorie / mole

$$$$
