JNS-01384-05
     RDKit          3D

 36 39  0  0  0  0  0  0  0  0999 V2000
   -0.5630    1.6056   -0.1190 C   0  0  0  0  0  0  0  0  0  0  0  0
   -0.0654    0.1703    0.0796 C   0  0  0  0  0  0  0  0  0  0  0  0
    1.4301    0.0715    0.0779 C   0  0  0  0  0  0  0  0  0  0  0  0
    2.2454    0.9872   -0.4079 N   0  0  0  0  0  0  0  0  0  0  0  0
    3.5244    0.5071   -0.1802 C   0  0  0  0  0  0  0  0  0  0  0  0
    3.4639   -0.7506    0.4769 C   0  0  0  0  0  0  0  0  0  0  0  0
    4.4848   -1.4971    0.8640 N   0  0  0  0  0  0  0  0  0  0  0  0
    5.6863   -0.9722    0.5772 C   0  0  0  0  0  0  0  0  0  0  0  0
    5.8895    0.2560   -0.0724 C   0  0  0  0  0  0  0  0  0  0  0  0
    4.7872    1.0247   -0.4655 C   0  0  0  0  0  0  0  0  0  0  0  0
    6.8582   -1.8210    1.0254 C   0  0  0  0  0  0  0  0  0  0  0  0
    6.8328   -3.0519    0.4646 F   0  0  0  0  0  0  0  0  0  0  0  0
    8.0461   -1.2541    0.6928 F   0  0  0  0  0  0  0  0  0  0  0  0
    6.8637   -1.9963    2.3690 F   0  0  0  0  0  0  0  0  0  0  0  0
    2.1068   -1.0205    0.6268 N   0  0  0  0  0  0  0  0  0  0  0  0
    1.5521   -2.1817    1.2415 C   0  0  0  0  0  0  0  0  0  0  0  0
    1.9214   -2.4870    2.5609 C   0  0  0  0  0  0  0  0  0  0  0  0
    1.3515   -3.6324    3.0815 C   0  0  0  0  0  0  0  0  0  0  0  0
    0.4546   -4.4624    2.3867 C   0  0  0  0  0  0  0  0  0  0  0  0
    0.0790   -5.5234    3.2250 N   0  0  0  0  0  0  0  0  0  0  0  0
    0.7357   -5.2860    4.3178 C   0  0  0  0  0  0  0  0  0  0  0  0
    0.7403   -5.9899    5.4470 O   0  0  0  0  0  0  0  0  0  0  0  0
    1.5294   -4.1799    4.3455 O   0  0  0  0  0  0  0  0  0  0  0  0
    0.1048   -4.1468    1.0732 C   0  0  0  0  0  0  0  0  0  0  0  0
    0.6757   -3.0019    0.5094 C   0  0  0  0  0  0  0  0  0  0  0  0
   -1.6570    1.6225   -0.1236 H   0  0  0  0  0  0  0  0  0  0  0  0
   -0.2085    2.2575    0.6840 H   0  0  0  0  0  0  0  0  0  0  0  0
   -0.2009    2.0178   -1.0632 H   0  0  0  0  0  0  0  0  0  0  0  0
   -0.4653   -0.4727   -0.7146 H   0  0  0  0  0  0  0  0  0  0  0  0
   -0.4454   -0.2491    1.0178 H   0  0  0  0  0  0  0  0  0  0  0  0
    6.8991    0.6007   -0.2624 H   0  0  0  0  0  0  0  0  0  0  0  0
    4.9088    1.9800   -0.9675 H   0  0  0  0  0  0  0  0  0  0  0  0
    2.6161   -1.8679    3.1167 H   0  0  0  0  0  0  0  0  0  0  0  0
    0.1478   -6.7504    5.3074 H   0  0  0  0  0  0  0  0  0  0  0  0
   -0.5725   -4.7770    0.5058 H   0  0  0  0  0  0  0  0  0  0  0  0
    0.4536   -2.7412   -0.5203 H   0  0  0  0  0  0  0  0  0  0  0  0
  1  2  1  0
  1 26  1  0
  1 27  1  0
  1 28  1  0
  2  3  1  0
  2 29  1  0
  2 30  1  0
  3  4  2  0
  3 15  1  0
  4  5  1  0
  5  6  2  0
  5 10  1  0
  6  7  1  0
  6 15  1  0
  7  8  2  0
  8  9  1  0
  8 11  1  0
  9 10  2  0
  9 31  1  0
 10 32  1  0
 11 12  1  0
 11 13  1  0
 11 14  1  0
 15 16  1  0
 16 17  2  0
 16 25  1  0
 17 18  1  0
 17 33  1  0
 18 19  2  0
 18 23  1  0
 19 20  1  0
 19 24  1  0
 20 21  2  0
 21 22  1  0
 21 23  1  0
 22 34  1  0
 24 25  2  0
 24 35  1  0
 25 36  1  0
M  END
>  <group_name>  (1) 
JNS

>  <molecule_index>  (1) 
01384

>  <conformer_index>  (1) 
05

>  <method>  (1) 
b3lyp-d3bj

>  <basis>  (1) 
dzvp

>  <program>  (1) 
psi4

>  <initial_energy>  (1) 
-806714.2078459434 kilocalorie / mole

>  <final_energy>  (1) 
-806720.4579093659 kilocalorie / mole

$$$$
