JNS-01565-00
     RDKit          3D

 41 44  0  0  0  0  0  0  0  0999 V2000
   -0.6722   -1.2667    0.7906 C   0  0  0  0  0  0  0  0  0  0  0  0
   -0.0992   -0.4057   -0.3526 C   0  0  0  0  0  0  0  0  0  0  0  0
   -0.4781   -0.9644   -1.7373 C   0  0  0  0  0  0  0  0  0  0  0  0
    1.3889   -0.2162   -0.2098 C   0  0  0  0  0  0  0  0  0  0  0  0
    2.4214   -1.1356   -0.1871 C   0  0  0  0  0  0  0  0  0  0  0  0
    2.2937   -3.0183   -0.4021 Br  0  0  0  0  0  0  0  0  0  0  0  0
    3.6539   -0.4521    0.0491 C   0  0  0  0  0  0  0  0  0  0  0  0
    3.3199    0.9289    0.1624 C   0  0  0  0  0  0  0  0  0  0  0  0
    4.1658    1.9230    0.3892 N   0  0  0  0  0  0  0  0  0  0  0  0
    5.4466    1.5578    0.5194 C   0  0  0  0  0  0  0  0  0  0  0  0
    5.9121    0.2346    0.4281 C   0  0  0  0  0  0  0  0  0  0  0  0
    5.0019   -0.7965    0.1874 C   0  0  0  0  0  0  0  0  0  0  0  0
    6.3956    2.7062    0.7934 C   0  0  0  0  0  0  0  0  0  0  0  0
    7.6789    2.2813    0.9071 F   0  0  0  0  0  0  0  0  0  0  0  0
    6.3659    3.6315   -0.1930 F   0  0  0  0  0  0  0  0  0  0  0  0
    6.0841    3.3465    1.9474 F   0  0  0  0  0  0  0  0  0  0  0  0
    1.9478    1.0583   -0.0043 N   0  0  0  0  0  0  0  0  0  0  0  0
    1.2794    2.3152   -0.0425 C   0  0  0  0  0  0  0  0  0  0  0  0
    1.3368    3.1775    1.0716 C   0  0  0  0  0  0  0  0  0  0  0  0
    0.7003    4.3964    0.9630 C   0  0  0  0  0  0  0  0  0  0  0  0
    0.0316    4.6838   -0.2473 C   0  0  0  0  0  0  0  0  0  0  0  0
   -0.5545    5.9463   -0.1636 N   0  0  0  0  0  0  0  0  0  0  0  0
   -0.3140    6.5599    1.0636 C   0  0  0  0  0  0  0  0  0  0  0  0
   -0.7122    7.6598    1.3975 O   0  0  0  0  0  0  0  0  0  0  0  0
    0.5393    5.5756    1.8856 C   0  0  0  0  0  0  0  0  0  0  0  0
   -0.0366    3.8991   -1.3117 N   0  0  0  0  0  0  0  0  0  0  0  0
    0.6104    2.7226   -1.1968 C   0  0  0  0  0  0  0  0  0  0  0  0
   -0.4189   -0.8411    1.7665 H   0  0  0  0  0  0  0  0  0  0  0  0
   -1.7633   -1.3085    0.7085 H   0  0  0  0  0  0  0  0  0  0  0  0
   -0.2893   -2.2892    0.7555 H   0  0  0  0  0  0  0  0  0  0  0  0
   -0.5544    0.5840   -0.2630 H   0  0  0  0  0  0  0  0  0  0  0  0
   -0.0955   -0.3272   -2.5409 H   0  0  0  0  0  0  0  0  0  0  0  0
   -0.0759   -1.9698   -1.8841 H   0  0  0  0  0  0  0  0  0  0  0  0
   -1.5677   -1.0151   -1.8323 H   0  0  0  0  0  0  0  0  0  0  0  0
    6.9688    0.0261    0.5464 H   0  0  0  0  0  0  0  0  0  0  0  0
    5.3290   -1.8295    0.1119 H   0  0  0  0  0  0  0  0  0  0  0  0
    1.8768    2.8811    1.9656 H   0  0  0  0  0  0  0  0  0  0  0  0
   -1.0844    6.3811   -0.9101 H   0  0  0  0  0  0  0  0  0  0  0  0
    1.4885    6.0537    2.1471 H   0  0  0  0  0  0  0  0  0  0  0  0
    0.0220    5.3401    2.8206 H   0  0  0  0  0  0  0  0  0  0  0  0
    0.5919    2.0735   -2.0694 H   0  0  0  0  0  0  0  0  0  0  0  0
  1  2  1  0
  1 28  1  0
  1 29  1  0
  1 30  1  0
  2  3  1  0
  2  4  1  0
  2 31  1  0
  3 32  1  0
  3 33  1  0
  3 34  1  0
  4  5  2  0
  4 17  1  0
  5  6  1  0
  5  7  1  0
  7  8  2  0
  7 12  1  0
  8  9  1  0
  8 17  1  0
  9 10  2  0
 10 11  1  0
 10 13  1  0
 11 12  2  0
 11 35  1  0
 12 36  1  0
 13 14  1  0
 13 15  1  0
 13 16  1  0
 17 18  1  0
 18 19  2  0
 18 27  1  0
 19 20  1  0
 19 37  1  0
 20 21  2  0
 20 25  1  0
 21 22  1  0
 21 26  1  0
 22 23  1  0
 22 38  1  0
 23 24  2  0
 23 25  1  0
 25 39  1  0
 25 40  1  0
 26 27  2  0
 27 41  1  0
M  END
>  <group_name>  (1) 
JNS

>  <molecule_index>  (1) 
01565

>  <conformer_index>  (1) 
00

>  <method>  (1) 
b3lyp-d3bj

>  <basis>  (1) 
dzvp

>  <program>  (1) 
psi4

>  <initial_energy>  (1) 
-2423497.7721257536 kilocalorie / mole

>  <final_energy>  (1) 
-2423505.5891910945 kilocalorie / mole

$$$$
