JNS-01380-01
     RDKit          3D

 34 37  0  0  0  0  0  0  0  0999 V2000
   -0.5937    1.3602   -0.2212 C   0  0  0  0  0  0  0  0  0  0  0  0
    0.0168    0.0492   -0.2043 O   0  0  0  0  0  0  0  0  0  0  0  0
    1.3420    0.0426   -0.0822 C   0  0  0  0  0  0  0  0  0  0  0  0
    2.1201    1.0917    0.0579 N   0  0  0  0  0  0  0  0  0  0  0  0
    3.4018    0.5613    0.1286 C   0  0  0  0  0  0  0  0  0  0  0  0
    3.3570   -0.8566    0.0252 C   0  0  0  0  0  0  0  0  0  0  0  0
    4.3824   -1.6847    0.0534 N   0  0  0  0  0  0  0  0  0  0  0  0
    5.5771   -1.0835    0.1980 C   0  0  0  0  0  0  0  0  0  0  0  0
    5.7623    0.2998    0.3123 C   0  0  0  0  0  0  0  0  0  0  0  0
    4.6509    1.1557    0.2789 C   0  0  0  0  0  0  0  0  0  0  0  0
    6.7512   -2.0384    0.2280 C   0  0  0  0  0  0  0  0  0  0  0  0
    6.6697   -2.9057    1.2643 F   0  0  0  0  0  0  0  0  0  0  0  0
    7.9320   -1.3796    0.3501 F   0  0  0  0  0  0  0  0  0  0  0  0
    6.8241   -2.7801   -0.9039 F   0  0  0  0  0  0  0  0  0  0  0  0
    2.0010   -1.1795   -0.1083 N   0  0  0  0  0  0  0  0  0  0  0  0
    1.4384   -2.4814   -0.2641 C   0  0  0  0  0  0  0  0  0  0  0  0
    0.2954   -2.8326    0.4600 C   0  0  0  0  0  0  0  0  0  0  0  0
   -0.2205   -4.1126    0.2741 C   0  0  0  0  0  0  0  0  0  0  0  0
    0.3909   -5.0491   -0.5959 C   0  0  0  0  0  0  0  0  0  0  0  0
   -0.2376   -6.2909   -0.6652 N   0  0  0  0  0  0  0  0  0  0  0  0
   -1.2710   -6.3060    0.1092 C   0  0  0  0  0  0  0  0  0  0  0  0
   -2.0938   -7.3566    0.2744 O   0  0  0  0  0  0  0  0  0  0  0  0
   -1.6385   -4.8406    1.0257 S   0  0  0  0  0  0  0  0  0  0  0  0
    1.5440   -4.6768   -1.2970 C   0  0  0  0  0  0  0  0  0  0  0  0
    2.0601   -3.3946   -1.1343 C   0  0  0  0  0  0  0  0  0  0  0  0
   -0.2072    1.9431   -1.0599 H   0  0  0  0  0  0  0  0  0  0  0  0
   -1.6607    1.1735   -0.3360 H   0  0  0  0  0  0  0  0  0  0  0  0
   -0.3860    1.8841    0.7141 H   0  0  0  0  0  0  0  0  0  0  0  0
    6.7628    0.7006    0.4241 H   0  0  0  0  0  0  0  0  0  0  0  0
    4.7597    2.2326    0.3653 H   0  0  0  0  0  0  0  0  0  0  0  0
   -0.1686   -2.1234    1.1357 H   0  0  0  0  0  0  0  0  0  0  0  0
   -1.7468   -8.0725   -0.2908 H   0  0  0  0  0  0  0  0  0  0  0  0
    2.0217   -5.3902   -1.9612 H   0  0  0  0  0  0  0  0  0  0  0  0
    2.9569   -3.0977   -1.6650 H   0  0  0  0  0  0  0  0  0  0  0  0
  1  2  1  0
  1 26  1  0
  1 27  1  0
  1 28  1  0
  2  3  1  0
  3  4  2  0
  3 15  1  0
  4  5  1  0
  5  6  2  0
  5 10  1  0
  6  7  1  0
  6 15  1  0
  7  8  2  0
  8  9  1  0
  8 11  1  0
  9 10  2  0
  9 29  1  0
 10 30  1  0
 11 12  1  0
 11 13  1  0
 11 14  1  0
 15 16  1  0
 16 17  2  0
 16 25  1  0
 17 18  1  0
 17 31  1  0
 18 19  2  0
 18 23  1  0
 19 20  1  0
 19 24  1  0
 20 21  2  0
 21 22  1  0
 21 23  1  0
 22 32  1  0
 24 25  2  0
 24 33  1  0
 25 34  1  0
M  END
>  <group_name>  (1) 
JNS

>  <molecule_index>  (1) 
01380

>  <conformer_index>  (1) 
01

>  <method>  (1) 
b3lyp-d3bj

>  <basis>  (1) 
dzvp

>  <program>  (1) 
psi4

>  <initial_energy>  (1) 
-1031831.4329268473 kilocalorie / mole

>  <final_energy>  (1) 
-1031898.3276562081 kilocalorie / mole

$$$$
