JNS-02466-00
     RDKit          3D

 53 56  0  0  0  0  0  0  0  0999 V2000
    0.7166    1.2951   -2.3893 C   0  0  0  0  0  0  0  0  0  0  0  0
    0.6493    0.5294   -1.0567 C   0  0  2  0  0  0  0  0  0  0  0  0
    1.9458    0.3540   -0.3844 N   0  0  0  0  0  0  0  0  0  0  0  0
    2.3849    1.4821    0.4374 C   0  0  0  0  0  0  0  0  0  0  0  0
    3.8289    1.2446    0.9315 C   0  0  0  0  0  0  0  0  0  0  0  0
    4.1191   -0.2520    1.1095 C   0  0  0  0  0  0  0  0  0  0  0  0
    3.9366   -1.0202   -0.2275 C   0  0  2  0  0  0  0  0  0  0  0  0
    3.0358   -0.1917   -1.1804 C   0  0  0  0  0  0  0  0  0  0  0  0
    3.3126   -2.3930   -0.0932 C   0  0  0  0  0  0  0  0  0  0  0  0
    2.2429   -2.6568    0.7783 C   0  0  0  0  0  0  0  0  0  0  0  0
    1.6610   -3.9179    0.7451 C   0  0  0  0  0  0  0  0  0  0  0  0
    2.0201   -4.9040   -0.0869 N   0  0  0  0  0  0  0  0  0  0  0  0
    3.0254   -4.6571   -0.9377 C   0  0  0  0  0  0  0  0  0  0  0  0
    3.3792   -5.7431   -1.9218 C   0  0  0  0  0  0  0  0  0  0  0  0
    3.6990   -3.4268   -0.9469 C   0  0  0  0  0  0  0  0  0  0  0  0
    0.5755   -4.2920    1.7364 C   0  0  0  0  0  0  0  0  0  0  0  0
    0.0312   -3.1986    2.3305 F   0  0  0  0  0  0  0  0  0  0  0  0
    1.0742   -5.0701    2.7333 F   0  0  0  0  0  0  0  0  0  0  0  0
   -0.4336   -4.9836    1.1662 F   0  0  0  0  0  0  0  0  0  0  0  0
   -0.0262   -0.8265   -1.2067 C   0  0  0  0  0  0  0  0  0  0  0  0
    0.4896   -1.6757   -2.1139 N   0  0  0  0  0  0  0  0  0  0  0  0
   -0.0126   -2.8938   -2.2247 C   0  0  0  0  0  0  0  0  0  0  0  0
   -1.0972   -3.3528   -1.4463 C   0  0  0  0  0  0  0  0  0  0  0  0
   -1.6119   -4.6182   -1.5678 O   0  0  0  0  0  0  0  0  0  0  0  0
   -0.6933   -5.5345   -2.1834 C   0  0  0  0  0  0  0  0  0  0  0  0
   -0.1198   -4.9105   -3.4433 C   0  0  0  0  0  0  0  0  0  0  0  0
    0.6054   -3.7080   -3.1379 O   0  0  0  0  0  0  0  0  0  0  0  0
   -1.6521   -2.4698   -0.5277 C   0  0  0  0  0  0  0  0  0  0  0  0
   -1.1076   -1.1896   -0.4010 C   0  0  0  0  0  0  0  0  0  0  0  0
   -0.2918    1.4996   -2.7641 H   0  0  0  0  0  0  0  0  0  0  0  0
    1.2333    2.2522   -2.2609 H   0  0  0  0  0  0  0  0  0  0  0  0
    1.2414    0.7101   -3.1483 H   0  0  0  0  0  0  0  0  0  0  0  0
    0.0358    1.1104   -0.3597 H   0  0  0  0  0  0  0  0  0  0  0  0
    1.7036    1.5667    1.2941 H   0  0  0  0  0  0  0  0  0  0  0  0
    2.3423    2.4446   -0.1060 H   0  0  0  0  0  0  0  0  0  0  0  0
    3.9848    1.7797    1.8738 H   0  0  0  0  0  0  0  0  0  0  0  0
    4.5419    1.6690    0.2158 H   0  0  0  0  0  0  0  0  0  0  0  0
    3.4486   -0.6506    1.8748 H   0  0  0  0  0  0  0  0  0  0  0  0
    5.1361   -0.3990    1.4879 H   0  0  0  0  0  0  0  0  0  0  0  0
    4.9127   -1.1406   -0.7119 H   0  0  0  0  0  0  0  0  0  0  0  0
    2.6322   -0.8341   -1.9614 H   0  0  0  0  0  0  0  0  0  0  0  0
    3.6337    0.5925   -1.6766 H   0  0  0  0  0  0  0  0  0  0  0  0
    1.8566   -1.8963    1.4430 H   0  0  0  0  0  0  0  0  0  0  0  0
    4.4626   -5.8426   -2.0400 H   0  0  0  0  0  0  0  0  0  0  0  0
    2.9664   -6.6990   -1.5934 H   0  0  0  0  0  0  0  0  0  0  0  0
    2.9621   -5.5016   -2.9065 H   0  0  0  0  0  0  0  0  0  0  0  0
    4.5103   -3.2716   -1.6546 H   0  0  0  0  0  0  0  0  0  0  0  0
    0.1020   -5.7810   -1.4724 H   0  0  0  0  0  0  0  0  0  0  0  0
   -1.2703   -6.4308   -2.4218 H   0  0  0  0  0  0  0  0  0  0  0  0
    0.5959   -5.5818   -3.9231 H   0  0  0  0  0  0  0  0  0  0  0  0
   -0.9228   -4.6756   -4.1530 H   0  0  0  0  0  0  0  0  0  0  0  0
   -2.4757   -2.8079    0.0939 H   0  0  0  0  0  0  0  0  0  0  0  0
   -1.5074   -0.4934    0.3300 H   0  0  0  0  0  0  0  0  0  0  0  0
  1  2  1  0
  1 30  1  0
  1 31  1  0
  1 32  1  0
  2  3  1  0
  2 20  1  0
  2 33  1  1
  3  4  1  0
  3  8  1  0
  4  5  1  0
  4 34  1  0
  4 35  1  0
  5  6  1  0
  5 36  1  0
  5 37  1  0
  6  7  1  0
  6 38  1  0
  6 39  1  0
  7  8  1  0
  7  9  1  0
  7 40  1  6
  8 41  1  0
  8 42  1  0
  9 10  2  0
  9 15  1  0
 10 11  1  0
 10 43  1  0
 11 12  2  0
 11 16  1  0
 12 13  1  0
 13 14  1  0
 13 15  2  0
 14 44  1  0
 14 45  1  0
 14 46  1  0
 15 47  1  0
 16 17  1  0
 16 18  1  0
 16 19  1  0
 20 21  2  0
 20 29  1  0
 21 22  1  0
 22 23  2  0
 22 27  1  0
 23 24  1  0
 23 28  1  0
 24 25  1  0
 25 26  1  0
 25 48  1  0
 25 49  1  0
 26 27  1  0
 26 50  1  0
 26 51  1  0
 28 29  2  0
 28 52  1  0
 29 53  1  0
M  END
>  <group_name>  (1) 
JNS

>  <molecule_index>  (1) 
02466

>  <conformer_index>  (1) 
00

>  <method>  (1) 
b3lyp-d3bj

>  <basis>  (1) 
dzvp

>  <program>  (1) 
psi4

>  <initial_energy>  (1) 
-896769.9198162991 kilocalorie / mole

>  <final_energy>  (1) 
-896850.0594795941 kilocalorie / mole

$$$$
