JNS-01795-04
     RDKit          3D

 43 46  0  0  0  0  0  0  0  0999 V2000
   -0.3066    1.4129    1.2893 C   0  0  0  0  0  0  0  0  0  0  0  0
   -0.0738    0.1100    0.5000 C   0  0  0  0  0  0  0  0  0  0  0  0
   -0.8910    0.1735   -0.8114 C   0  0  0  0  0  0  0  0  0  0  0  0
   -0.5555   -1.0817    1.3578 C   0  0  0  0  0  0  0  0  0  0  0  0
    1.4091   -0.0061    0.1935 C   0  0  0  0  0  0  0  0  0  0  0  0
    2.2814    0.9380    0.5041 N   0  0  0  0  0  0  0  0  0  0  0  0
    3.5124    0.4824    0.0723 C   0  0  0  0  0  0  0  0  0  0  0  0
    3.3698   -0.7966   -0.5248 C   0  0  0  0  0  0  0  0  0  0  0  0
    4.3297   -1.5437   -1.0465 N   0  0  0  0  0  0  0  0  0  0  0  0
    5.5492   -0.9885   -0.9823 C   0  0  0  0  0  0  0  0  0  0  0  0
    5.8311    0.2688   -0.4219 C   0  0  0  0  0  0  0  0  0  0  0  0
    4.7926    1.0334    0.1230 C   0  0  0  0  0  0  0  0  0  0  0  0
    6.6526   -1.8443   -1.5692 C   0  0  0  0  0  0  0  0  0  0  0  0
    6.4227   -2.1460   -2.8685 F   0  0  0  0  0  0  0  0  0  0  0  0
    6.7835   -3.0193   -0.9064 F   0  0  0  0  0  0  0  0  0  0  0  0
    7.8586   -1.2210   -1.5122 F   0  0  0  0  0  0  0  0  0  0  0  0
    2.0150   -1.0963   -0.4432 N   0  0  0  0  0  0  0  0  0  0  0  0
    1.4624   -2.3233   -0.9425 C   0  0  0  0  0  0  0  0  0  0  0  0
    0.9879   -2.3790   -2.2462 C   0  0  0  0  0  0  0  0  0  0  0  0
    0.4849   -3.5994   -2.7286 C   0  0  0  0  0  0  0  0  0  0  0  0
    0.4990   -4.7383   -1.8705 C   0  0  0  0  0  0  0  0  0  0  0  0
   -0.0388   -5.7920   -2.5843 N   0  0  0  0  0  0  0  0  0  0  0  0
   -0.3822   -5.3576   -3.8561 C   0  0  0  0  0  0  0  0  0  0  0  0
   -0.0796   -4.0227   -3.9820 C   0  0  0  0  0  0  0  0  0  0  0  0
    1.0044   -4.6849   -0.5651 C   0  0  0  0  0  0  0  0  0  0  0  0
    1.4901   -3.4643   -0.1121 C   0  0  0  0  0  0  0  0  0  0  0  0
   -1.3739    1.5059    1.5157 H   0  0  0  0  0  0  0  0  0  0  0  0
    0.0084    2.2882    0.7169 H   0  0  0  0  0  0  0  0  0  0  0  0
    0.2518    1.4147    2.2286 H   0  0  0  0  0  0  0  0  0  0  0  0
   -1.9415    0.3720   -0.5730 H   0  0  0  0  0  0  0  0  0  0  0  0
   -0.5324    0.9821   -1.4567 H   0  0  0  0  0  0  0  0  0  0  0  0
   -0.8463   -0.7638   -1.3686 H   0  0  0  0  0  0  0  0  0  0  0  0
   -1.5960   -0.9131    1.6551 H   0  0  0  0  0  0  0  0  0  0  0  0
    0.0441   -1.1763    2.2693 H   0  0  0  0  0  0  0  0  0  0  0  0
   -0.5116   -2.0276    0.8157 H   0  0  0  0  0  0  0  0  0  0  0  0
    6.8504    0.6367   -0.4156 H   0  0  0  0  0  0  0  0  0  0  0  0
    4.9743    2.0089    0.5648 H   0  0  0  0  0  0  0  0  0  0  0  0
    1.0166   -1.4926   -2.8730 H   0  0  0  0  0  0  0  0  0  0  0  0
   -0.1376   -6.7382   -2.2455 H   0  0  0  0  0  0  0  0  0  0  0  0
   -0.8172   -6.0426   -4.5718 H   0  0  0  0  0  0  0  0  0  0  0  0
   -0.2379   -3.4176   -4.8649 H   0  0  0  0  0  0  0  0  0  0  0  0
    1.0270   -5.5631    0.0747 H   0  0  0  0  0  0  0  0  0  0  0  0
    1.8998   -3.3738    0.8891 H   0  0  0  0  0  0  0  0  0  0  0  0
  1  2  1  0
  1 27  1  0
  1 28  1  0
  1 29  1  0
  2  3  1  0
  2  4  1  0
  2  5  1  0
  3 30  1  0
  3 31  1  0
  3 32  1  0
  4 33  1  0
  4 34  1  0
  4 35  1  0
  5  6  2  0
  5 17  1  0
  6  7  1  0
  7  8  2  0
  7 12  1  0
  8  9  1  0
  8 17  1  0
  9 10  2  0
 10 11  1  0
 10 13  1  0
 11 12  2  0
 11 36  1  0
 12 37  1  0
 13 14  1  0
 13 15  1  0
 13 16  1  0
 17 18  1  0
 18 19  2  0
 18 26  1  0
 19 20  1  0
 19 38  1  0
 20 21  2  0
 20 24  1  0
 21 22  1  0
 21 25  1  0
 22 23  1  0
 22 39  1  0
 23 24  2  0
 23 40  1  0
 24 41  1  0
 25 26  2  0
 25 42  1  0
 26 43  1  0
M  END
>  <group_name>  (1) 
JNS

>  <molecule_index>  (1) 
01795

>  <conformer_index>  (1) 
04

>  <method>  (1) 
b3lyp-d3bj

>  <basis>  (1) 
dzvp

>  <program>  (1) 
psi4

>  <initial_energy>  (1) 
-786270.9716554324 kilocalorie / mole

>  <final_energy>  (1) 
-786318.4606947631 kilocalorie / mole

$$$$
