JNS-01681-00
     RDKit          3D

 30 33  0  0  0  0  0  0  0  0999 V2000
    0.1773    2.3518   -0.4831 F   0  0  0  0  0  0  0  0  0  0  0  0
    0.5787    1.5789    0.5573 C   0  0  0  0  0  0  0  0  0  0  0  0
    0.8163    2.4079    1.6020 F   0  0  0  0  0  0  0  0  0  0  0  0
   -0.4695    0.7958    0.9016 F   0  0  0  0  0  0  0  0  0  0  0  0
    1.8041    0.7576    0.2073 C   0  0  0  0  0  0  0  0  0  0  0  0
    2.2527   -0.0109    1.2089 N   0  0  0  0  0  0  0  0  0  0  0  0
    3.3259   -0.7259    0.9054 C   0  0  0  0  0  0  0  0  0  0  0  0
    4.0117   -0.7442   -0.3407 C   0  0  0  0  0  0  0  0  0  0  0  0
    3.5186    0.0679   -1.3625 C   0  0  0  0  0  0  0  0  0  0  0  0
    2.3857    0.8341   -1.0700 C   0  0  0  0  0  0  0  0  0  0  0  0
    5.0917   -1.6128   -0.2818 N   0  0  0  0  0  0  0  0  0  0  0  0
    5.0591   -2.0966    0.9392 C   0  0  0  0  0  0  0  0  0  0  0  0
    4.0208   -1.6145    1.7204 N   0  0  0  0  0  0  0  0  0  0  0  0
    3.7190   -1.9918    3.0617 C   0  0  0  0  0  0  0  0  0  0  0  0
    3.8060   -3.3278    3.4302 C   0  0  0  0  0  0  0  0  0  0  0  0
    3.5434   -3.6632    4.7716 C   0  0  0  0  0  0  0  0  0  0  0  0
    3.1755   -2.6469    5.6922 C   0  0  0  0  0  0  0  0  0  0  0  0
    2.9749   -3.2867    6.8866 N   0  0  0  0  0  0  0  0  0  0  0  0
    3.1829   -4.6299    6.8010 N   0  0  0  0  0  0  0  0  0  0  0  0
    3.5227   -4.8694    5.5433 C   0  0  0  0  0  0  0  0  0  0  0  0
    3.0692   -1.2984    5.3099 C   0  0  0  0  0  0  0  0  0  0  0  0
    3.3511   -0.9838    3.9908 C   0  0  0  0  0  0  0  0  0  0  0  0
    3.9945    0.1021   -2.3380 H   0  0  0  0  0  0  0  0  0  0  0  0
    1.9524    1.4879   -1.8175 H   0  0  0  0  0  0  0  0  0  0  0  0
    5.7762   -2.7974    1.3496 H   0  0  0  0  0  0  0  0  0  0  0  0
    4.0494   -4.0917    2.6974 H   0  0  0  0  0  0  0  0  0  0  0  0
    2.6952   -2.8918    7.7737 H   0  0  0  0  0  0  0  0  0  0  0  0
    3.7400   -5.8827    5.2289 H   0  0  0  0  0  0  0  0  0  0  0  0
    2.7800   -0.5236    6.0140 H   0  0  0  0  0  0  0  0  0  0  0  0
    3.2774    0.0423    3.6498 H   0  0  0  0  0  0  0  0  0  0  0  0
  1  2  1  0
  2  3  1  0
  2  4  1  0
  2  5  1  0
  5  6  2  0
  5 10  1  0
  6  7  1  0
  7  8  2  0
  7 13  1  0
  8  9  1  0
  8 11  1  0
  9 10  2  0
  9 23  1  0
 10 24  1  0
 11 12  2  0
 12 13  1  0
 12 25  1  0
 13 14  1  0
 14 15  2  0
 14 22  1  0
 15 16  1  0
 15 26  1  0
 16 17  2  0
 16 20  1  0
 17 18  1  0
 17 21  1  0
 18 19  1  0
 18 27  1  0
 19 20  2  0
 20 28  1  0
 21 22  2  0
 21 29  1  0
 22 30  1  0
M  END
>  <group_name>  (1) 
JNS

>  <molecule_index>  (1) 
01681

>  <conformer_index>  (1) 
00

>  <method>  (1) 
b3lyp-d3bj

>  <basis>  (1) 
dzvp

>  <program>  (1) 
psi4

>  <initial_energy>  (1) 
-697635.1471356526 kilocalorie / mole

>  <final_energy>  (1) 
-697670.4563845078 kilocalorie / mole

$$$$
