JNS-01948-04
     RDKit          3D

 33 34  0  0  0  0  0  0  0  0999 V2000
   -0.5923    0.5482   -0.2160 C   0  0  0  0  0  0  0  0  0  0  0  0
    0.4811   -0.2129   -0.7984 O   0  0  0  0  0  0  0  0  0  0  0  0
    1.7386    0.1480   -0.4555 C   0  0  0  0  0  0  0  0  0  0  0  0
    1.9267    1.1588    0.3791 N   0  0  0  0  0  0  0  0  0  0  0  0
    3.2014    1.4664    0.6785 C   0  0  0  0  0  0  0  0  0  0  0  0
    4.3053    0.8027    0.1771 C   0  0  0  0  0  0  0  0  0  0  0  0
    4.0980   -0.2774   -0.7135 C   0  0  0  0  0  0  0  0  0  0  0  0
    5.3007   -1.0016   -1.2804 C   0  0  0  0  0  0  0  0  0  0  0  0
    5.0307   -2.2646   -2.1008 C   0  0  2  0  0  0  0  0  0  0  0  0
    4.4606   -3.4583   -1.2798 C   0  0  0  0  0  0  0  0  0  0  0  0
    5.5129   -4.5839   -1.4501 C   0  0  0  0  0  0  0  0  0  0  0  0
    6.2394   -4.3040   -2.7008 N   0  0  0  0  0  0  0  0  0  0  0  0
    6.3387   -2.8383   -2.7231 C   0  0  0  0  0  0  0  0  0  0  0  0
    2.7881   -0.6041   -1.0290 C   0  0  0  0  0  0  0  0  0  0  0  0
    3.3490    2.6270    1.6436 C   0  0  0  0  0  0  0  0  0  0  0  0
    4.6523    2.9165    1.8879 F   0  0  0  0  0  0  0  0  0  0  0  0
    2.7727    3.7530    1.1634 F   0  0  0  0  0  0  0  0  0  0  0  0
    2.7695    2.3584    2.8374 F   0  0  0  0  0  0  0  0  0  0  0  0
   -0.5195    1.6009   -0.5007 H   0  0  0  0  0  0  0  0  0  0  0  0
   -1.5045    0.1044   -0.6156 H   0  0  0  0  0  0  0  0  0  0  0  0
   -0.5732    0.4727    0.8743 H   0  0  0  0  0  0  0  0  0  0  0  0
    5.3075    1.1038    0.4619 H   0  0  0  0  0  0  0  0  0  0  0  0
    5.9697   -1.2562   -0.4474 H   0  0  0  0  0  0  0  0  0  0  0  0
    5.8617   -0.2842   -1.8953 H   0  0  0  0  0  0  0  0  0  0  0  0
    4.3420   -2.0161   -2.9160 H   0  0  0  0  0  0  0  0  0  0  0  0
    4.3015   -3.1969   -0.2288 H   0  0  0  0  0  0  0  0  0  0  0  0
    3.4925   -3.7774   -1.6787 H   0  0  0  0  0  0  0  0  0  0  0  0
    6.2344   -4.5558   -0.6246 H   0  0  0  0  0  0  0  0  0  0  0  0
    5.0788   -5.5870   -1.4716 H   0  0  0  0  0  0  0  0  0  0  0  0
    5.6592   -4.6019   -3.4846 H   0  0  0  0  0  0  0  0  0  0  0  0
    6.5240   -2.4762   -3.7382 H   0  0  0  0  0  0  0  0  0  0  0  0
    7.1997   -2.5448   -2.1079 H   0  0  0  0  0  0  0  0  0  0  0  0
    2.5358   -1.4198   -1.6959 H   0  0  0  0  0  0  0  0  0  0  0  0
  1  2  1  0
  1 19  1  0
  1 20  1  0
  1 21  1  0
  2  3  1  0
  3  4  2  0
  3 14  1  0
  4  5  1  0
  5  6  2  0
  5 15  1  0
  6  7  1  0
  6 22  1  0
  7  8  1  0
  7 14  2  0
  8  9  1  0
  8 23  1  0
  8 24  1  0
  9 10  1  0
  9 13  1  0
  9 25  1  6
 10 11  1  0
 10 26  1  0
 10 27  1  0
 11 12  1  0
 11 28  1  0
 11 29  1  0
 12 13  1  0
 12 30  1  0
 13 31  1  0
 13 32  1  0
 14 33  1  0
 15 16  1  0
 15 17  1  0
 15 18  1  0
M  END
>  <group_name>  (1) 
JNS

>  <molecule_index>  (1) 
01948

>  <conformer_index>  (1) 
04

>  <method>  (1) 
b3lyp-d3bj

>  <basis>  (1) 
dzvp

>  <program>  (1) 
psi4

>  <initial_energy>  (1) 
-596560.0055579258 kilocalorie / mole

>  <final_energy>  (1) 
-596613.772336712 kilocalorie / mole

$$$$
