JNS-01792-01
     RDKit          3D

 40 44  0  0  0  0  0  0  0  0999 V2000
   -0.6068   -1.0285    0.3862 F   0  0  0  0  0  0  0  0  0  0  0  0
    0.0450    0.1581    0.3019 C   0  0  0  0  0  0  0  0  0  0  0  0
   -0.2491    0.8493    1.4284 F   0  0  0  0  0  0  0  0  0  0  0  0
   -0.5025    0.8387   -0.7380 F   0  0  0  0  0  0  0  0  0  0  0  0
    1.5362   -0.0326    0.1254 C   0  0  0  0  0  0  0  0  0  0  0  0
    2.1276   -0.7010    1.1234 N   0  0  0  0  0  0  0  0  0  0  0  0
    3.4323   -0.8840    0.9800 C   0  0  0  0  0  0  0  0  0  0  0  0
    4.2359   -0.4437   -0.1169 C   0  0  0  0  0  0  0  0  0  0  0  0
    5.5740   -0.8775    0.1510 C   0  0  0  0  0  0  0  0  0  0  0  0
    5.5631   -1.5432    1.3604 C   0  0  0  0  0  0  0  0  0  0  0  0
    6.6677   -2.1938    2.0922 C   0  0  0  0  0  0  0  0  0  0  0  0
    7.7078   -1.3478    2.8247 C   0  0  0  0  0  0  0  0  0  0  0  0
    8.0865   -2.1073    1.5786 C   0  0  0  0  0  0  0  0  0  0  0  0
    4.2601   -1.5447    1.8786 N   0  0  0  0  0  0  0  0  0  0  0  0
    3.8300   -2.1044    3.1175 C   0  0  0  0  0  0  0  0  0  0  0  0
    2.7512   -3.0069    3.1259 C   0  0  0  0  0  0  0  0  0  0  0  0
    2.3245   -3.5262    4.3362 C   0  0  0  0  0  0  0  0  0  0  0  0
    2.9748   -3.1598    5.5304 C   0  0  0  0  0  0  0  0  0  0  0  0
    2.3625   -3.8178    6.6062 N   0  0  0  0  0  0  0  0  0  0  0  0
    1.3031   -4.6235    6.2032 C   0  0  0  0  0  0  0  0  0  0  0  0
    0.6070   -5.2989    6.9412 O   0  0  0  0  0  0  0  0  0  0  0  0
    1.2076   -4.4808    4.6758 C   0  0  0  0  0  0  0  0  0  0  0  0
    4.0437   -2.2693    5.5373 C   0  0  0  0  0  0  0  0  0  0  0  0
    4.4573   -1.7327    4.3106 C   0  0  0  0  0  0  0  0  0  0  0  0
    3.5774    0.2507   -1.1385 C   0  0  0  0  0  0  0  0  0  0  0  0
    2.2017    0.4574   -1.0102 C   0  0  0  0  0  0  0  0  0  0  0  0
    6.4382   -0.7492   -0.4864 H   0  0  0  0  0  0  0  0  0  0  0  0
    6.3934   -3.1180    2.5934 H   0  0  0  0  0  0  0  0  0  0  0  0
    8.0626   -1.7096    3.7856 H   0  0  0  0  0  0  0  0  0  0  0  0
    7.6060   -0.2696    2.7446 H   0  0  0  0  0  0  0  0  0  0  0  0
    8.2702   -1.5366    0.6744 H   0  0  0  0  0  0  0  0  0  0  0  0
    8.7043   -2.9937    1.6825 H   0  0  0  0  0  0  0  0  0  0  0  0
    2.2606   -3.2702    2.1947 H   0  0  0  0  0  0  0  0  0  0  0  0
    2.6241   -3.7275    7.5801 H   0  0  0  0  0  0  0  0  0  0  0  0
    1.3125   -5.4670    4.2128 H   0  0  0  0  0  0  0  0  0  0  0  0
    0.2166   -4.0994    4.4101 H   0  0  0  0  0  0  0  0  0  0  0  0
    4.5369   -1.9779    6.4605 H   0  0  0  0  0  0  0  0  0  0  0  0
    5.2705   -1.0156    4.2828 H   0  0  0  0  0  0  0  0  0  0  0  0
    4.1134    0.6196   -2.0090 H   0  0  0  0  0  0  0  0  0  0  0  0
    1.6450    0.9869   -1.7744 H   0  0  0  0  0  0  0  0  0  0  0  0
  1  2  1  0
  2  3  1  0
  2  4  1  0
  2  5  1  0
  5  6  2  0
  5 26  1  0
  6  7  1  0
  7  8  2  0
  7 14  1  0
  8  9  1  0
  8 25  1  0
  9 10  2  0
  9 27  1  0
 10 11  1  0
 10 14  1  0
 11 12  1  0
 11 13  1  0
 11 28  1  0
 12 13  1  0
 12 29  1  0
 12 30  1  0
 13 31  1  0
 13 32  1  0
 14 15  1  0
 15 16  2  0
 15 24  1  0
 16 17  1  0
 16 33  1  0
 17 18  2  0
 17 22  1  0
 18 19  1  0
 18 23  1  0
 19 20  1  0
 19 34  1  0
 20 21  2  0
 20 22  1  0
 22 35  1  0
 22 36  1  0
 23 24  2  0
 23 37  1  0
 24 38  1  0
 25 26  2  0
 25 39  1  0
 26 40  1  0
M  END
>  <group_name>  (1) 
JNS

>  <molecule_index>  (1) 
01792

>  <conformer_index>  (1) 
01

>  <method>  (1) 
b3lyp-d3bj

>  <basis>  (1) 
dzvp

>  <program>  (1) 
psi4

>  <initial_energy>  (1) 
-797983.332525982 kilocalorie / mole

>  <final_energy>  (1) 
-798015.9061925571 kilocalorie / mole

$$$$
