JNS-00129-04
     RDKit          3D

 31 33  0  0  0  0  0  0  0  0999 V2000
    0.2778   -2.0294    1.1412 N   0  0  0  0  0  0  0  0  0  0  0  0
   -0.6241   -1.0743    0.6145 C   0  0  0  0  0  0  0  0  0  0  0  0
   -0.0990   -0.0292   -0.2144 C   0  0  0  0  0  0  0  0  0  0  0  0
    1.2655   -0.0350   -0.4326 N   0  0  0  0  0  0  0  0  0  0  0  0
    2.0641    0.8642   -1.1762 C   0  0  0  0  0  0  0  0  0  0  0  0
    1.5678    1.7344   -2.1452 C   0  0  0  0  0  0  0  0  0  0  0  0
    2.4899    2.5392   -2.8437 C   0  0  0  0  0  0  0  0  0  0  0  0
    3.8777    2.4643   -2.5665 C   0  0  0  0  0  0  0  0  0  0  0  0
    4.4782    3.3651   -3.4103 N   0  0  0  0  0  0  0  0  0  0  0  0
    3.5795    4.0111   -4.2038 N   0  0  0  0  0  0  0  0  0  0  0  0
    2.3890    3.5276   -3.8759 C   0  0  0  0  0  0  0  0  0  0  0  0
    4.3816    1.5897   -1.5899 C   0  0  0  0  0  0  0  0  0  0  0  0
    3.4643    0.8051   -0.9111 C   0  0  0  0  0  0  0  0  0  0  0  0
   -0.8799    0.8960   -0.7620 N   0  0  0  0  0  0  0  0  0  0  0  0
   -2.1928    0.8760   -0.4835 C   0  0  0  0  0  0  0  0  0  0  0  0
   -2.7970   -0.0473    0.3530 C   0  0  0  0  0  0  0  0  0  0  0  0
   -1.9792   -1.0514    0.9023 C   0  0  0  0  0  0  0  0  0  0  0  0
   -2.9851    1.9806   -1.1477 C   0  0  0  0  0  0  0  0  0  0  0  0
   -2.8299    1.9722   -2.4938 F   0  0  0  0  0  0  0  0  0  0  0  0
   -4.3145    1.8657   -0.8968 F   0  0  0  0  0  0  0  0  0  0  0  0
   -2.6037    3.2066   -0.7149 F   0  0  0  0  0  0  0  0  0  0  0  0
   -0.1856   -2.7035    1.7442 H   0  0  0  0  0  0  0  0  0  0  0  0
    0.7754   -2.5321    0.4075 H   0  0  0  0  0  0  0  0  0  0  0  0
    1.7708   -0.5626    0.2702 H   0  0  0  0  0  0  0  0  0  0  0  0
    0.5067    1.7951   -2.3398 H   0  0  0  0  0  0  0  0  0  0  0  0
    5.4579    3.5950   -3.4954 H   0  0  0  0  0  0  0  0  0  0  0  0
    1.5027    3.8940   -4.3789 H   0  0  0  0  0  0  0  0  0  0  0  0
    5.4424    1.5241   -1.3648 H   0  0  0  0  0  0  0  0  0  0  0  0
    3.8242    0.1192   -0.1463 H   0  0  0  0  0  0  0  0  0  0  0  0
   -3.8607   -0.0138    0.5551 H   0  0  0  0  0  0  0  0  0  0  0  0
   -2.4109   -1.8233    1.5356 H   0  0  0  0  0  0  0  0  0  0  0  0
  1  2  1  0
  1 22  1  0
  1 23  1  0
  2  3  2  0
  2 17  1  0
  3  4  1  0
  3 14  1  0
  4  5  1  0
  4 24  1  0
  5  6  2  0
  5 13  1  0
  6  7  1  0
  6 25  1  0
  7  8  2  0
  7 11  1  0
  8  9  1  0
  8 12  1  0
  9 10  1  0
  9 26  1  0
 10 11  2  0
 11 27  1  0
 12 13  2  0
 12 28  1  0
 13 29  1  0
 14 15  2  0
 15 16  1  0
 15 18  1  0
 16 17  2  0
 16 30  1  0
 17 31  1  0
 18 19  1  0
 18 20  1  0
 18 21  1  0
M  END
>  <group_name>  (1) 
JNS

>  <molecule_index>  (1) 
00129

>  <conformer_index>  (1) 
04

>  <method>  (1) 
b3lyp-d3bj

>  <basis>  (1) 
dzvp

>  <program>  (1) 
psi4

>  <initial_energy>  (1) 
-674463.6071502225 kilocalorie / mole

>  <final_energy>  (1) 
-674510.4039527375 kilocalorie / mole

$$$$
