JNS-02466-04
     RDKit          3D

 53 56  0  0  0  0  0  0  0  0999 V2000
    0.4082    1.4651   -1.6355 C   0  0  0  0  0  0  0  0  0  0  0  0
    0.4459    0.4619   -0.4693 C   0  0  2  0  0  0  0  0  0  0  0  0
    1.7792    0.2484    0.1151 N   0  0  0  0  0  0  0  0  0  0  0  0
    2.1767    1.2305    1.1250 C   0  0  0  0  0  0  0  0  0  0  0  0
    3.6478    1.0003    1.5362 C   0  0  0  0  0  0  0  0  0  0  0  0
    4.0354   -0.4774    1.3962 C   0  0  0  0  0  0  0  0  0  0  0  0
    3.8858   -0.9492   -0.0742 C   0  0  2  0  0  0  0  0  0  0  0  0
    2.8666   -0.0390   -0.8102 C   0  0  0  0  0  0  0  0  0  0  0  0
    3.4277   -2.3820   -0.2329 C   0  0  0  0  0  0  0  0  0  0  0  0
    2.3829   -2.9278    0.5318 C   0  0  0  0  0  0  0  0  0  0  0  0
    1.9566   -4.2168    0.2373 C   0  0  0  0  0  0  0  0  0  0  0  0
    2.4488   -4.9790   -0.7476 N   0  0  0  0  0  0  0  0  0  0  0  0
    3.4354   -4.4631   -1.4934 C   0  0  0  0  0  0  0  0  0  0  0  0
    3.9390   -5.3024   -2.6404 C   0  0  0  0  0  0  0  0  0  0  0  0
    3.9531   -3.1828   -1.2476 C   0  0  0  0  0  0  0  0  0  0  0  0
    0.8948   -4.8956    1.0815 C   0  0  0  0  0  0  0  0  0  0  0  0
   -0.0482   -5.5053    0.3315 F   0  0  0  0  0  0  0  0  0  0  0  0
    1.4417   -5.8483    1.8812 F   0  0  0  0  0  0  0  0  0  0  0  0
    0.2569   -4.0181    1.8983 F   0  0  0  0  0  0  0  0  0  0  0  0
   -0.1652   -0.8784   -0.8524 C   0  0  0  0  0  0  0  0  0  0  0  0
    0.3711   -1.5251   -1.9030 N   0  0  0  0  0  0  0  0  0  0  0  0
   -0.0912   -2.7183   -2.2375 C   0  0  0  0  0  0  0  0  0  0  0  0
   -1.1886   -3.3263   -1.5895 C   0  0  0  0  0  0  0  0  0  0  0  0
   -1.7210   -4.5258   -1.9880 O   0  0  0  0  0  0  0  0  0  0  0  0
   -1.2448   -4.9696   -3.2637 C   0  0  0  0  0  0  0  0  0  0  0  0
    0.2523   -4.7459   -3.3727 C   0  0  0  0  0  0  0  0  0  0  0  0
    0.5557   -3.3425   -3.2717 O   0  0  0  0  0  0  0  0  0  0  0  0
   -1.7369   -2.6691   -0.4945 C   0  0  0  0  0  0  0  0  0  0  0  0
   -1.2098   -1.4342   -0.1100 C   0  0  0  0  0  0  0  0  0  0  0  0
   -0.6268    1.6733   -1.9263 H   0  0  0  0  0  0  0  0  0  0  0  0
    0.8788    2.4117   -1.3492 H   0  0  0  0  0  0  0  0  0  0  0  0
    0.9256    1.0649   -2.5107 H   0  0  0  0  0  0  0  0  0  0  0  0
   -0.1672    0.8637    0.3444 H   0  0  0  0  0  0  0  0  0  0  0  0
    1.5199    1.1086    1.9959 H   0  0  0  0  0  0  0  0  0  0  0  0
    2.0572    2.2720    0.7723 H   0  0  0  0  0  0  0  0  0  0  0  0
    3.7974    1.3417    2.5655 H   0  0  0  0  0  0  0  0  0  0  0  0
    4.3105    1.6091    0.9106 H   0  0  0  0  0  0  0  0  0  0  0  0
    3.3971   -1.0726    2.0542 H   0  0  0  0  0  0  0  0  0  0  0  0
    5.0638   -0.6379    1.7363 H   0  0  0  0  0  0  0  0  0  0  0  0
    4.8510   -0.8469   -0.5837 H   0  0  0  0  0  0  0  0  0  0  0  0
    3.3715    0.8765   -1.1657 H   0  0  0  0  0  0  0  0  0  0  0  0
    2.4740   -0.5545   -1.6853 H   0  0  0  0  0  0  0  0  0  0  0  0
    1.8982   -2.3549    1.3108 H   0  0  0  0  0  0  0  0  0  0  0  0
    5.0080   -5.1489   -2.8138 H   0  0  0  0  0  0  0  0  0  0  0  0
    3.7539   -6.3604   -2.4439 H   0  0  0  0  0  0  0  0  0  0  0  0
    3.4126   -5.0292   -3.5629 H   0  0  0  0  0  0  0  0  0  0  0  0
    4.7552   -2.8041   -1.8772 H   0  0  0  0  0  0  0  0  0  0  0  0
   -1.7715   -4.4267   -4.0593 H   0  0  0  0  0  0  0  0  0  0  0  0
   -1.4880   -6.0324   -3.3286 H   0  0  0  0  0  0  0  0  0  0  0  0
    0.7790   -5.2876   -2.5800 H   0  0  0  0  0  0  0  0  0  0  0  0
    0.6250   -5.0649   -4.3486 H   0  0  0  0  0  0  0  0  0  0  0  0
   -2.5589   -3.1351    0.0410 H   0  0  0  0  0  0  0  0  0  0  0  0
   -1.6093   -0.9121    0.7542 H   0  0  0  0  0  0  0  0  0  0  0  0
  1  2  1  0
  1 30  1  0
  1 31  1  0
  1 32  1  0
  2  3  1  0
  2 20  1  0
  2 33  1  1
  3  4  1  0
  3  8  1  0
  4  5  1  0
  4 34  1  0
  4 35  1  0
  5  6  1  0
  5 36  1  0
  5 37  1  0
  6  7  1  0
  6 38  1  0
  6 39  1  0
  7  8  1  0
  7  9  1  0
  7 40  1  6
  8 41  1  0
  8 42  1  0
  9 10  2  0
  9 15  1  0
 10 11  1  0
 10 43  1  0
 11 12  2  0
 11 16  1  0
 12 13  1  0
 13 14  1  0
 13 15  2  0
 14 44  1  0
 14 45  1  0
 14 46  1  0
 15 47  1  0
 16 17  1  0
 16 18  1  0
 16 19  1  0
 20 21  2  0
 20 29  1  0
 21 22  1  0
 22 23  2  0
 22 27  1  0
 23 24  1  0
 23 28  1  0
 24 25  1  0
 25 26  1  0
 25 48  1  0
 25 49  1  0
 26 27  1  0
 26 50  1  0
 26 51  1  0
 28 29  2  0
 28 52  1  0
 29 53  1  0
M  END
>  <group_name>  (1) 
JNS

>  <molecule_index>  (1) 
02466

>  <conformer_index>  (1) 
04

>  <method>  (1) 
b3lyp-d3bj

>  <basis>  (1) 
dzvp

>  <program>  (1) 
psi4

>  <initial_energy>  (1) 
-896783.688867925 kilocalorie / mole

>  <final_energy>  (1) 
-896849.4158373348 kilocalorie / mole

$$$$
