JNS-00129-02
     RDKit          3D

 31 33  0  0  0  0  0  0  0  0999 V2000
    0.5386   -1.2519    1.8503 N   0  0  0  0  0  0  0  0  0  0  0  0
   -0.4685   -0.7795    0.9807 C   0  0  0  0  0  0  0  0  0  0  0  0
   -0.0985    0.1395   -0.0526 C   0  0  0  0  0  0  0  0  0  0  0  0
    1.2385    0.5093   -0.1131 N   0  0  0  0  0  0  0  0  0  0  0  0
    1.8549    1.3373   -1.0850 C   0  0  0  0  0  0  0  0  0  0  0  0
    3.1545    1.0295   -1.4793 C   0  0  0  0  0  0  0  0  0  0  0  0
    3.8146    1.8880   -2.3794 C   0  0  0  0  0  0  0  0  0  0  0  0
    3.1444    3.0344   -2.8754 C   0  0  0  0  0  0  0  0  0  0  0  0
    4.0336    3.6469   -3.7232 N   0  0  0  0  0  0  0  0  0  0  0  0
    5.2169    2.9800   -3.8071 N   0  0  0  0  0  0  0  0  0  0  0  0
    5.1003    1.9271   -3.0088 C   0  0  0  0  0  0  0  0  0  0  0  0
    1.8328    3.3482   -2.4823 C   0  0  0  0  0  0  0  0  0  0  0  0
    1.2028    2.4998   -1.5861 C   0  0  0  0  0  0  0  0  0  0  0  0
   -0.9832    0.6395   -0.9056 N   0  0  0  0  0  0  0  0  0  0  0  0
   -2.2595    0.2340   -0.8204 C   0  0  0  0  0  0  0  0  0  0  0  0
   -2.7177   -0.6974    0.0977 C   0  0  0  0  0  0  0  0  0  0  0  0
   -1.7882   -1.2044    1.0224 C   0  0  0  0  0  0  0  0  0  0  0  0
   -3.1845    0.8742   -1.8316 C   0  0  0  0  0  0  0  0  0  0  0  0
   -3.1992    2.2255   -1.7123 F   0  0  0  0  0  0  0  0  0  0  0  0
   -4.4651    0.4471   -1.6814 F   0  0  0  0  0  0  0  0  0  0  0  0
   -2.8186    0.5957   -3.1046 F   0  0  0  0  0  0  0  0  0  0  0  0
    1.0432   -0.4932    2.3060 H   0  0  0  0  0  0  0  0  0  0  0  0
    0.1771   -1.8856    2.5573 H   0  0  0  0  0  0  0  0  0  0  0  0
    1.8529   -0.2008    0.2718 H   0  0  0  0  0  0  0  0  0  0  0  0
    3.6501    0.1377   -1.1006 H   0  0  0  0  0  0  0  0  0  0  0  0
    3.9070    4.4876   -4.2685 H   0  0  0  0  0  0  0  0  0  0  0  0
    5.9284    1.2360   -2.9097 H   0  0  0  0  0  0  0  0  0  0  0  0
    1.3170    4.2265   -2.8604 H   0  0  0  0  0  0  0  0  0  0  0  0
    0.1894    2.7093   -1.2722 H   0  0  0  0  0  0  0  0  0  0  0  0
   -3.7563   -1.0045    0.1181 H   0  0  0  0  0  0  0  0  0  0  0  0
   -2.1051   -1.9128    1.7848 H   0  0  0  0  0  0  0  0  0  0  0  0
  1  2  1  0
  1 22  1  0
  1 23  1  0
  2  3  2  0
  2 17  1  0
  3  4  1  0
  3 14  1  0
  4  5  1  0
  4 24  1  0
  5  6  2  0
  5 13  1  0
  6  7  1  0
  6 25  1  0
  7  8  2  0
  7 11  1  0
  8  9  1  0
  8 12  1  0
  9 10  1  0
  9 26  1  0
 10 11  2  0
 11 27  1  0
 12 13  2  0
 12 28  1  0
 13 29  1  0
 14 15  2  0
 15 16  1  0
 15 18  1  0
 16 17  2  0
 16 30  1  0
 17 31  1  0
 18 19  1  0
 18 20  1  0
 18 21  1  0
M  END
>  <group_name>  (1) 
JNS

>  <molecule_index>  (1) 
00129

>  <conformer_index>  (1) 
02

>  <method>  (1) 
b3lyp-d3bj

>  <basis>  (1) 
dzvp

>  <program>  (1) 
psi4

>  <initial_energy>  (1) 
-674422.2886069838 kilocalorie / mole

>  <final_energy>  (1) 
-674510.3028601216 kilocalorie / mole

$$$$
