JNS-01082-02
     RDKit          3D

 43 46  0  0  0  0  0  0  0  0999 V2000
    0.0334    3.3939    1.0376 C   0  0  0  0  0  0  0  0  0  0  0  0
    0.4202    2.5138   -0.1572 C   0  0  2  0  0  0  0  0  0  0  0  0
    0.3115    3.2699   -1.5046 C   0  0  0  0  0  0  0  0  0  0  0  0
   -1.1280    3.3181   -1.8960 C   0  0  0  0  0  0  0  0  0  0  0  0
   -2.1028    2.5056   -1.3748 C   0  0  0  0  0  0  0  0  0  0  0  0
   -1.8482    1.4333   -0.3642 C   0  0  0  0  0  0  0  0  0  0  0  0
   -0.3922    1.2806   -0.1974 N   0  0  0  0  0  0  0  0  0  0  0  0
    0.1119    0.0153   -0.1554 C   0  0  0  0  0  0  0  0  0  0  0  0
   -0.5694   -1.0041   -0.2654 O   0  0  0  0  0  0  0  0  0  0  0  0
    1.6062   -0.1543    0.0135 C   0  0  0  0  0  0  0  0  0  0  0  0
    2.2738    0.1370    1.1986 C   0  0  0  0  0  0  0  0  0  0  0  0
    1.5974    0.7060    2.2187 F   0  0  0  0  0  0  0  0  0  0  0  0
    3.6359   -0.1412    1.3359 C   0  0  0  0  0  0  0  0  0  0  0  0
    4.3488   -0.6944    0.3562 N   0  0  0  0  0  0  0  0  0  0  0  0
    3.7192   -0.9952   -0.7867 C   0  0  0  0  0  0  0  0  0  0  0  0
    2.3611   -0.7538   -0.9993 C   0  0  0  0  0  0  0  0  0  0  0  0
    4.3559    0.2004    2.6332 C   0  0  0  0  0  0  0  0  0  0  0  0
    4.2770    1.5342    2.8873 F   0  0  0  0  0  0  0  0  0  0  0  0
    3.7930   -0.4389    3.6870 F   0  0  0  0  0  0  0  0  0  0  0  0
    5.6518   -0.1314    2.5933 F   0  0  0  0  0  0  0  0  0  0  0  0
   -3.3152    2.8448   -1.9144 N   0  0  0  0  0  0  0  0  0  0  0  0
   -3.1523    3.8288   -2.7484 N   0  0  0  0  0  0  0  0  0  0  0  0
   -1.8114    4.1418   -2.7540 N   0  0  0  0  0  0  0  0  0  0  0  0
   -1.3058    5.1547   -3.6025 C   0  0  0  0  0  0  0  0  0  0  0  0
   -2.1754    6.0609   -4.0533 N   0  0  0  0  0  0  0  0  0  0  0  0
   -1.6875    6.9928   -4.8684 C   0  0  0  0  0  0  0  0  0  0  0  0
   -0.3292    7.0369   -5.2199 C   0  0  0  0  0  0  0  0  0  0  0  0
    0.0997    8.0254   -6.0569 O   0  0  0  0  0  0  0  0  0  0  0  0
    0.4883    6.0485   -4.6674 C   0  0  0  0  0  0  0  0  0  0  0  0
    0.0006    5.0966   -3.8630 N   0  0  0  0  0  0  0  0  0  0  0  0
    0.7325    4.2316    1.1208 H   0  0  0  0  0  0  0  0  0  0  0  0
   -0.9732    3.8076    0.9275 H   0  0  0  0  0  0  0  0  0  0  0  0
    0.0772    2.8178    1.9646 H   0  0  0  0  0  0  0  0  0  0  0  0
    1.4599    2.2134   -0.0383 H   0  0  0  0  0  0  0  0  0  0  0  0
    0.8969    2.7594   -2.2768 H   0  0  0  0  0  0  0  0  0  0  0  0
    0.7355    4.2720   -1.4032 H   0  0  0  0  0  0  0  0  0  0  0  0
   -2.2500    0.4729   -0.6879 H   0  0  0  0  0  0  0  0  0  0  0  0
   -2.3130    1.6761    0.5997 H   0  0  0  0  0  0  0  0  0  0  0  0
    4.3282   -1.4528   -1.5628 H   0  0  0  0  0  0  0  0  0  0  0  0
    1.8851   -1.0359   -1.9335 H   0  0  0  0  0  0  0  0  0  0  0  0
   -2.3784    7.7399   -5.2551 H   0  0  0  0  0  0  0  0  0  0  0  0
    1.0541    7.9376   -6.2142 H   0  0  0  0  0  0  0  0  0  0  0  0
    1.5580    6.0118   -4.8795 H   0  0  0  0  0  0  0  0  0  0  0  0
  1  2  1  0
  1 31  1  0
  1 32  1  0
  1 33  1  0
  2  3  1  0
  2  7  1  0
  2 34  1  1
  3  4  1  0
  3 35  1  0
  3 36  1  0
  4  5  2  0
  4 23  1  0
  5  6  1  0
  5 21  1  0
  6  7  1  0
  6 37  1  0
  6 38  1  0
  7  8  1  0
  8  9  2  0
  8 10  1  0
 10 11  2  0
 10 16  1  0
 11 12  1  0
 11 13  1  0
 13 14  2  0
 13 17  1  0
 14 15  1  0
 15 16  2  0
 15 39  1  0
 16 40  1  0
 17 18  1  0
 17 19  1  0
 17 20  1  0
 21 22  2  0
 22 23  1  0
 23 24  1  0
 24 25  2  0
 24 30  1  0
 25 26  1  0
 26 27  2  0
 26 41  1  0
 27 28  1  0
 27 29  1  0
 28 42  1  0
 29 30  2  0
 29 43  1  0
M  END
>  <group_name>  (1) 
JNS

>  <molecule_index>  (1) 
01082

>  <conformer_index>  (1) 
02

>  <method>  (1) 
b3lyp-d3bj

>  <basis>  (1) 
dzvp

>  <program>  (1) 
psi4

>  <initial_energy>  (1) 
-997093.0917841982 kilocalorie / mole

>  <final_energy>  (1) 
-997107.4006705596 kilocalorie / mole

$$$$
