JNS-01614-01
     RDKit          3D

 39 42  0  0  0  0  0  0  0  0999 V2000
   -0.4442    1.7642   -0.3360 C   0  0  0  0  0  0  0  0  0  0  0  0
    0.1194    0.4665   -0.9214 C   0  0  0  0  0  0  0  0  0  0  0  0
    1.5744    0.2745   -0.6199 C   0  0  0  0  0  0  0  0  0  0  0  0
    2.3786    1.1953   -0.1235 N   0  0  0  0  0  0  0  0  0  0  0  0
    3.6110    0.5765    0.0105 C   0  0  0  0  0  0  0  0  0  0  0  0
    3.5296   -0.7744   -0.4251 C   0  0  0  0  0  0  0  0  0  0  0  0
    4.5043   -1.6685   -0.4352 N   0  0  0  0  0  0  0  0  0  0  0  0
    5.6778   -1.2031    0.0203 C   0  0  0  0  0  0  0  0  0  0  0  0
    5.8979    0.1061    0.4785 C   0  0  0  0  0  0  0  0  0  0  0  0
    4.8441    1.0284    0.4785 C   0  0  0  0  0  0  0  0  0  0  0  0
    6.7963   -2.2248    0.0122 C   0  0  0  0  0  0  0  0  0  0  0  0
    7.9615   -1.6996    0.4717 F   0  0  0  0  0  0  0  0  0  0  0  0
    7.0376   -2.6987   -1.2327 F   0  0  0  0  0  0  0  0  0  0  0  0
    6.5066   -3.2925    0.7941 F   0  0  0  0  0  0  0  0  0  0  0  0
    2.2116   -0.9472   -0.8312 N   0  0  0  0  0  0  0  0  0  0  0  0
    1.6421   -2.1493   -1.3545 C   0  0  0  0  0  0  0  0  0  0  0  0
    1.5343   -3.2637   -0.5391 C   0  0  0  0  0  0  0  0  0  0  0  0
    0.9821   -4.4294   -1.1021 C   0  0  0  0  0  0  0  0  0  0  0  0
    0.5559   -4.4241   -2.4551 C   0  0  0  0  0  0  0  0  0  0  0  0
    0.0684   -5.6825   -2.6938 N   0  0  0  0  0  0  0  0  0  0  0  0
    0.1533   -6.4918   -1.6000 N   0  0  0  0  0  0  0  0  0  0  0  0
    0.6966   -5.7555   -0.6424 C   0  0  0  0  0  0  0  0  0  0  0  0
    0.6700   -3.2973   -3.2960 C   0  0  0  0  0  0  0  0  0  0  0  0
    0.2270   -3.3430   -4.7355 C   0  0  0  0  0  0  0  0  0  0  0  0
    1.2291   -2.1694   -2.7110 C   0  0  0  0  0  0  0  0  0  0  0  0
   -0.3449    1.7785    0.7526 H   0  0  0  0  0  0  0  0  0  0  0  0
   -1.5041    1.8583   -0.5906 H   0  0  0  0  0  0  0  0  0  0  0  0
    0.0891    2.6340   -0.7261 H   0  0  0  0  0  0  0  0  0  0  0  0
   -0.4313   -0.4038   -0.5452 H   0  0  0  0  0  0  0  0  0  0  0  0
   -0.0227    0.4527   -2.0094 H   0  0  0  0  0  0  0  0  0  0  0  0
    6.8820    0.3924    0.8302 H   0  0  0  0  0  0  0  0  0  0  0  0
    4.9797    2.0480    0.8272 H   0  0  0  0  0  0  0  0  0  0  0  0
    1.8768   -3.2296    0.4902 H   0  0  0  0  0  0  0  0  0  0  0  0
   -0.3107   -6.0611   -3.5502 H   0  0  0  0  0  0  0  0  0  0  0  0
    0.8689   -6.1872    0.3356 H   0  0  0  0  0  0  0  0  0  0  0  0
   -0.8420   -3.5747   -4.8165 H   0  0  0  0  0  0  0  0  0  0  0  0
    0.3990   -2.3854   -5.2326 H   0  0  0  0  0  0  0  0  0  0  0  0
    0.7737   -4.1119   -5.2948 H   0  0  0  0  0  0  0  0  0  0  0  0
    1.3738   -1.2727   -3.3076 H   0  0  0  0  0  0  0  0  0  0  0  0
  1  2  1  0
  1 26  1  0
  1 27  1  0
  1 28  1  0
  2  3  1  0
  2 29  1  0
  2 30  1  0
  3  4  2  0
  3 15  1  0
  4  5  1  0
  5  6  2  0
  5 10  1  0
  6  7  1  0
  6 15  1  0
  7  8  2  0
  8  9  1  0
  8 11  1  0
  9 10  2  0
  9 31  1  0
 10 32  1  0
 11 12  1  0
 11 13  1  0
 11 14  1  0
 15 16  1  0
 16 17  2  0
 16 25  1  0
 17 18  1  0
 17 33  1  0
 18 19  2  0
 18 22  1  0
 19 20  1  0
 19 23  1  0
 20 21  1  0
 20 34  1  0
 21 22  2  0
 22 35  1  0
 23 24  1  0
 23 25  2  0
 24 36  1  0
 24 37  1  0
 24 38  1  0
 25 39  1  0
M  END
>  <group_name>  (1) 
JNS

>  <molecule_index>  (1) 
01614

>  <conformer_index>  (1) 
01

>  <method>  (1) 
b3lyp-d3bj

>  <basis>  (1) 
dzvp

>  <program>  (1) 
psi4

>  <initial_energy>  (1) 
-771636.1397630092 kilocalorie / mole

>  <final_energy>  (1) 
-771705.0448273526 kilocalorie / mole

$$$$
