JNS-01448-06
     RDKit          3D

 43 47  0  0  0  0  0  0  0  0999 V2000
   -0.0465   -2.6141   -2.2217 F   0  0  0  0  0  0  0  0  0  0  0  0
   -0.8035   -1.5635   -2.6416 C   0  0  0  0  0  0  0  0  0  0  0  0
   -0.1077   -0.9402   -3.6206 F   0  0  0  0  0  0  0  0  0  0  0  0
   -1.9257   -2.0588   -3.1731 F   0  0  0  0  0  0  0  0  0  0  0  0
   -1.1131   -0.6195   -1.5030 C   0  0  0  0  0  0  0  0  0  0  0  0
   -2.3073   -0.5243   -0.9654 N   0  0  0  0  0  0  0  0  0  0  0  0
   -2.1706    0.4423    0.0159 C   0  0  0  0  0  0  0  0  0  0  0  0
   -0.8361    0.9247    0.0428 C   0  0  0  0  0  0  0  0  0  0  0  0
   -0.3443    1.8579    0.8447 N   0  0  0  0  0  0  0  0  0  0  0  0
   -1.2382    2.3639    1.7014 C   0  0  0  0  0  0  0  0  0  0  0  0
   -2.5894    1.9749    1.7834 C   0  0  0  0  0  0  0  0  0  0  0  0
   -3.0801    0.9901    0.9236 C   0  0  0  0  0  0  0  0  0  0  0  0
   -0.6797    3.4324    2.6243 C   0  0  0  0  0  0  0  0  0  0  0  0
   -0.1562    4.4663    1.9279 F   0  0  0  0  0  0  0  0  0  0  0  0
    0.3004    2.9421    3.4162 F   0  0  0  0  0  0  0  0  0  0  0  0
   -1.6388    3.9397    3.4388 F   0  0  0  0  0  0  0  0  0  0  0  0
   -0.1607    0.2206   -0.9480 N   0  0  0  0  0  0  0  0  0  0  0  0
    1.2293    0.3669   -1.2748 C   0  0  0  0  0  0  0  0  0  0  0  0
    1.6768    1.5792   -1.7749 C   0  0  0  0  0  0  0  0  0  0  0  0
    3.0476    1.6909   -2.0620 C   0  0  0  0  0  0  0  0  0  0  0  0
    3.9119    0.5865   -1.8373 C   0  0  0  0  0  0  0  0  0  0  0  0
    5.1501    0.9997   -2.2508 N   0  0  0  0  0  0  0  0  0  0  0  0
    5.1431    2.2750   -2.7304 N   0  0  0  0  0  0  0  0  0  0  0  0
    3.8961    2.7038   -2.6154 C   0  0  0  0  0  0  0  0  0  0  0  0
    3.4606   -0.6449   -1.3114 C   0  0  0  0  0  0  0  0  0  0  0  0
    2.0992   -0.7192   -1.0324 C   0  0  0  0  0  0  0  0  0  0  0  0
    4.3717   -1.7883   -1.0789 C   0  0  0  0  0  0  0  0  0  0  0  0
    5.6274   -1.5998   -0.4736 C   0  0  0  0  0  0  0  0  0  0  0  0
    6.4814   -2.6829   -0.2530 C   0  0  0  0  0  0  0  0  0  0  0  0
    6.0954   -3.9722   -0.6342 C   0  0  0  0  0  0  0  0  0  0  0  0
    4.8465   -4.1705   -1.2329 C   0  0  0  0  0  0  0  0  0  0  0  0
    3.9925   -3.0884   -1.4549 C   0  0  0  0  0  0  0  0  0  0  0  0
   -3.2380    2.4460    2.5123 H   0  0  0  0  0  0  0  0  0  0  0  0
   -4.1160    0.6660    0.9553 H   0  0  0  0  0  0  0  0  0  0  0  0
    0.9878    2.4020   -1.9360 H   0  0  0  0  0  0  0  0  0  0  0  0
    6.0015    0.4575   -2.3030 H   0  0  0  0  0  0  0  0  0  0  0  0
    3.6395    3.7079   -2.9290 H   0  0  0  0  0  0  0  0  0  0  0  0
    1.6949   -1.6257   -0.5945 H   0  0  0  0  0  0  0  0  0  0  0  0
    5.9171   -0.6095   -0.1307 H   0  0  0  0  0  0  0  0  0  0  0  0
    7.4428   -2.5216    0.2277 H   0  0  0  0  0  0  0  0  0  0  0  0
    6.7603   -4.8147   -0.4639 H   0  0  0  0  0  0  0  0  0  0  0  0
    4.5404   -5.1684   -1.5358 H   0  0  0  0  0  0  0  0  0  0  0  0
    3.0337   -3.2451   -1.9421 H   0  0  0  0  0  0  0  0  0  0  0  0
  1  2  1  0
  2  3  1  0
  2  4  1  0
  2  5  1  0
  5  6  2  0
  5 17  1  0
  6  7  1  0
  7  8  2  0
  7 12  1  0
  8  9  1  0
  8 17  1  0
  9 10  2  0
 10 11  1  0
 10 13  1  0
 11 12  2  0
 11 33  1  0
 12 34  1  0
 13 14  1  0
 13 15  1  0
 13 16  1  0
 17 18  1  0
 18 19  2  0
 18 26  1  0
 19 20  1  0
 19 35  1  0
 20 21  2  0
 20 24  1  0
 21 22  1  0
 21 25  1  0
 22 23  1  0
 22 36  1  0
 23 24  2  0
 24 37  1  0
 25 26  2  0
 25 27  1  0
 26 38  1  0
 27 28  2  0
 27 32  1  0
 28 29  1  0
 28 39  1  0
 29 30  2  0
 29 40  1  0
 30 31  1  0
 30 41  1  0
 31 32  2  0
 31 42  1  0
 32 43  1  0
M  END
>  <group_name>  (1) 
JNS

>  <molecule_index>  (1) 
01448

>  <conformer_index>  (1) 
06

>  <method>  (1) 
b3lyp-d3bj

>  <basis>  (1) 
dzvp

>  <program>  (1) 
psi4

>  <initial_energy>  (1) 
-1054184.574782594 kilocalorie / mole

>  <final_energy>  (1) 
-1054230.911343525 kilocalorie / mole

$$$$
