JNS-01845-00
     RDKit          3D

 36 39  0  0  0  0  0  0  0  0999 V2000
    0.0691   -0.1732    0.5810 C   0  0  0  0  0  0  0  0  0  0  0  0
    1.5516   -0.1332    0.3974 C   0  0  0  0  0  0  0  0  0  0  0  0
    2.3947    0.9566    0.3977 C   0  0  0  0  0  0  0  0  0  0  0  0
    3.7203    0.4809    0.1269 C   0  0  0  0  0  0  0  0  0  0  0  0
    3.6228   -0.9350   -0.0355 C   0  0  0  0  0  0  0  0  0  0  0  0
    4.6154   -1.7696   -0.3064 N   0  0  0  0  0  0  0  0  0  0  0  0
    5.8179   -1.1945   -0.4330 C   0  0  0  0  0  0  0  0  0  0  0  0
    6.0608    0.1823   -0.2967 C   0  0  0  0  0  0  0  0  0  0  0  0
    4.9959    1.0404   -0.0110 C   0  0  0  0  0  0  0  0  0  0  0  0
    6.9405   -2.1599   -0.7511 C   0  0  0  0  0  0  0  0  0  0  0  0
    7.0831   -3.1036    0.2092 F   0  0  0  0  0  0  0  0  0  0  0  0
    6.7258   -2.8131   -1.9190 F   0  0  0  0  0  0  0  0  0  0  0  0
    8.1344   -1.5226   -0.8650 F   0  0  0  0  0  0  0  0  0  0  0  0
    2.2921   -1.2937    0.1407 N   0  0  0  0  0  0  0  0  0  0  0  0
    1.7925   -2.6253    0.0714 C   0  0  0  0  0  0  0  0  0  0  0  0
    1.1668   -3.1987    1.1908 C   0  0  0  0  0  0  0  0  0  0  0  0
    0.6881   -4.4978    1.0999 C   0  0  0  0  0  0  0  0  0  0  0  0
    0.8496   -5.2326   -0.0865 C   0  0  0  0  0  0  0  0  0  0  0  0
    0.3074   -6.5117    0.0586 N   0  0  0  0  0  0  0  0  0  0  0  0
   -0.2299   -6.7046    1.3283 C   0  0  0  0  0  0  0  0  0  0  0  0
   -0.7612   -7.7248    1.7264 O   0  0  0  0  0  0  0  0  0  0  0  0
   -0.0137   -5.3877    2.0964 C   0  0  0  0  0  0  0  0  0  0  0  0
    1.4877   -4.6599   -1.1770 C   0  0  0  0  0  0  0  0  0  0  0  0
    1.6407   -5.3885   -2.3125 F   0  0  0  0  0  0  0  0  0  0  0  0
    1.9575   -3.3532   -1.1129 C   0  0  0  0  0  0  0  0  0  0  0  0
   -0.4135   -0.7513   -0.2138 H   0  0  0  0  0  0  0  0  0  0  0  0
   -0.3275    0.8440    0.5608 H   0  0  0  0  0  0  0  0  0  0  0  0
   -0.2183   -0.6290    1.5343 H   0  0  0  0  0  0  0  0  0  0  0  0
    2.0842    1.9814    0.5552 H   0  0  0  0  0  0  0  0  0  0  0  0
    7.0673    0.5659   -0.4154 H   0  0  0  0  0  0  0  0  0  0  0  0
    5.1605    2.1090    0.0983 H   0  0  0  0  0  0  0  0  0  0  0  0
    1.0836   -2.6324    2.1133 H   0  0  0  0  0  0  0  0  0  0  0  0
    0.3130   -7.2344   -0.6508 H   0  0  0  0  0  0  0  0  0  0  0  0
    0.5795   -5.5892    2.9938 H   0  0  0  0  0  0  0  0  0  0  0  0
   -0.9828   -4.9994    2.4245 H   0  0  0  0  0  0  0  0  0  0  0  0
    2.4589   -2.9173   -1.9697 H   0  0  0  0  0  0  0  0  0  0  0  0
  1  2  1  0
  1 26  1  0
  1 27  1  0
  1 28  1  0
  2  3  2  0
  2 14  1  0
  3  4  1  0
  3 29  1  0
  4  5  2  0
  4  9  1  0
  5  6  1  0
  5 14  1  0
  6  7  2  0
  7  8  1  0
  7 10  1  0
  8  9  2  0
  8 30  1  0
  9 31  1  0
 10 11  1  0
 10 12  1  0
 10 13  1  0
 14 15  1  0
 15 16  2  0
 15 25  1  0
 16 17  1  0
 16 32  1  0
 17 18  2  0
 17 22  1  0
 18 19  1  0
 18 23  1  0
 19 20  1  0
 19 33  1  0
 20 21  2  0
 20 22  1  0
 22 34  1  0
 22 35  1  0
 23 24  1  0
 23 25  2  0
 25 36  1  0
M  END
>  <group_name>  (1) 
JNS

>  <molecule_index>  (1) 
01845

>  <conformer_index>  (1) 
00

>  <method>  (1) 
b3lyp-d3bj

>  <basis>  (1) 
dzvp

>  <program>  (1) 
psi4

>  <initial_energy>  (1) 
-811693.6415806111 kilocalorie / mole

>  <final_energy>  (1) 
-811733.9830611835 kilocalorie / mole

$$$$
