JNS-01754-05
     RDKit          3D

 31 33  0  0  0  0  0  0  0  0999 V2000
   -4.3668   -2.6474   -0.9027 F   0  0  0  0  0  0  0  0  0  0  0  0
   -4.0562   -1.5025   -1.5532 C   0  0  0  0  0  0  0  0  0  0  0  0
   -5.1596   -0.7224   -1.5409 F   0  0  0  0  0  0  0  0  0  0  0  0
   -3.8102   -1.8316   -2.8486 F   0  0  0  0  0  0  0  0  0  0  0  0
   -2.8645   -0.8078   -0.9278 C   0  0  0  0  0  0  0  0  0  0  0  0
   -1.6824   -0.5951   -1.6414 C   0  0  0  0  0  0  0  0  0  0  0  0
   -0.6272    0.0337   -0.9917 C   0  0  0  0  0  0  0  0  0  0  0  0
   -0.7763    0.4361    0.3474 C   0  0  0  0  0  0  0  0  0  0  0  0
    0.2950    1.0681    0.9717 N   0  0  0  0  0  0  0  0  0  0  0  0
    0.5808    1.3046    2.3018 C   0  0  0  0  0  0  0  0  0  0  0  0
    1.6864    1.9202    2.6259 N   0  0  0  0  0  0  0  0  0  0  0  0
    1.8321    2.0168    4.0008 C   0  0  0  0  0  0  0  0  0  0  0  0
    0.8059    1.4652    4.7248 C   0  0  0  0  0  0  0  0  0  0  0  0
   -0.3970    0.7825    3.6686 S   0  0  0  0  0  0  0  0  0  0  0  0
    3.0241    2.6850    4.5503 C   0  0  0  0  0  0  0  0  0  0  0  0
    3.3274    2.6789    5.9207 C   0  0  0  0  0  0  0  0  0  0  0  0
    4.4692    3.3386    6.3670 C   0  0  0  0  0  0  0  0  0  0  0  0
    5.2821    3.9838    5.4282 C   0  0  0  0  0  0  0  0  0  0  0  0
    5.0168    3.9991    4.1150 N   0  0  0  0  0  0  0  0  0  0  0  0
    3.9147    3.3639    3.6977 C   0  0  0  0  0  0  0  0  0  0  0  0
   -2.0250    0.1911    0.9601 C   0  0  0  0  0  0  0  0  0  0  0  0
   -3.0318   -0.4188    0.3374 N   0  0  0  0  0  0  0  0  0  0  0  0
   -1.5879   -0.9173   -2.6722 H   0  0  0  0  0  0  0  0  0  0  0  0
    0.3118    0.2074   -1.5124 H   0  0  0  0  0  0  0  0  0  0  0  0
    1.0769    1.3269    0.3791 H   0  0  0  0  0  0  0  0  0  0  0  0
    0.6582    1.4345    5.7952 H   0  0  0  0  0  0  0  0  0  0  0  0
    2.6888    2.1590    6.6297 H   0  0  0  0  0  0  0  0  0  0  0  0
    4.7330    3.3511    7.4207 H   0  0  0  0  0  0  0  0  0  0  0  0
    6.1839    4.5061    5.7441 H   0  0  0  0  0  0  0  0  0  0  0  0
    3.7142    3.3862    2.6302 H   0  0  0  0  0  0  0  0  0  0  0  0
   -2.2311    0.5160    1.9744 H   0  0  0  0  0  0  0  0  0  0  0  0
  1  2  1  0
  2  3  1  0
  2  4  1  0
  2  5  1  0
  5  6  2  0
  5 22  1  0
  6  7  1  0
  6 23  1  0
  7  8  2  0
  7 24  1  0
  8  9  1  0
  8 21  1  0
  9 10  1  0
  9 25  1  0
 10 11  2  0
 10 14  1  0
 11 12  1  0
 12 13  2  0
 12 15  1  0
 13 14  1  0
 13 26  1  0
 15 16  2  0
 15 20  1  0
 16 17  1  0
 16 27  1  0
 17 18  2  0
 17 28  1  0
 18 19  1  0
 18 29  1  0
 19 20  2  0
 20 30  1  0
 21 22  2  0
 21 31  1  0
M  END
>  <group_name>  (1) 
JNS

>  <molecule_index>  (1) 
01754

>  <conformer_index>  (1) 
05

>  <method>  (1) 
b3lyp-d3bj

>  <basis>  (1) 
dzvp

>  <program>  (1) 
psi4

>  <initial_energy>  (1) 
-913484.1613950579 kilocalorie / mole

>  <final_energy>  (1) 
-913535.3699508632 kilocalorie / mole

$$$$
