JNS-02536-00
     RDKit          3D

 44 47  0  0  0  0  0  0  0  0999 V2000
   -6.4748   -4.5783   -0.3988 C   0  0  0  0  0  0  0  0  0  0  0  0
   -5.3336   -3.5887   -0.3753 C   0  0  0  0  0  0  0  0  0  0  0  0
   -5.2456   -2.5629   -1.3270 C   0  0  0  0  0  0  0  0  0  0  0  0
   -4.1728   -1.6682   -1.3254 C   0  0  0  0  0  0  0  0  0  0  0  0
   -3.1725   -1.7881   -0.3598 C   0  0  0  0  0  0  0  0  0  0  0  0
   -3.2396   -2.8065    0.5953 C   0  0  0  0  0  0  0  0  0  0  0  0
   -4.3134   -3.6959    0.5838 C   0  0  0  0  0  0  0  0  0  0  0  0
   -2.0901   -0.8558   -0.3337 N   0  0  0  0  0  0  0  0  0  0  0  0
   -0.8707   -1.1085   -0.8834 C   0  0  0  0  0  0  0  0  0  0  0  0
   -0.3927   -2.4449   -1.7320 S   0  0  0  0  0  0  0  0  0  0  0  0
   -0.0655    0.0113   -0.5812 N   0  0  0  0  0  0  0  0  0  0  0  0
   -0.7618    0.9774    0.1584 C   0  0  0  0  0  0  0  0  0  0  0  0
   -0.3373    2.0601    0.5033 O   0  0  0  0  0  0  0  0  0  0  0  0
   -2.1457    0.4045    0.4007 C   0  0  0  0  0  0  0  0  0  0  0  0
   -3.2912    1.4248    0.1370 C   0  0  0  0  0  0  0  0  0  0  0  0
   -3.3262    1.7266    1.6601 C   0  0  0  0  0  0  0  0  0  0  0  0
   -2.5397    0.4118    1.9120 C   0  0  0  0  0  0  0  0  0  0  0  0
    1.3165    0.1171   -0.8817 C   0  0  0  0  0  0  0  0  0  0  0  0
    2.1220    0.2738    0.1666 N   0  0  0  0  0  0  0  0  0  0  0  0
    3.4245    0.4020   -0.0489 C   0  0  0  0  0  0  0  0  0  0  0  0
    3.9963    0.3606   -1.3361 C   0  0  0  0  0  0  0  0  0  0  0  0
    3.1314    0.1840   -2.4290 C   0  0  0  0  0  0  0  0  0  0  0  0
    1.7658    0.0647   -2.2034 C   0  0  0  0  0  0  0  0  0  0  0  0
    5.4059    0.4924   -1.5689 C   0  0  0  0  0  0  0  0  0  0  0  0
    6.5413    0.5966   -1.8044 N   0  0  0  0  0  0  0  0  0  0  0  0
    4.3001    0.5839    1.1889 C   0  0  0  0  0  0  0  0  0  0  0  0
    3.5834    0.5879    2.3182 F   0  0  0  0  0  0  0  0  0  0  0  0
    4.9840    1.7512    1.1217 F   0  0  0  0  0  0  0  0  0  0  0  0
    5.2131   -0.4142    1.2765 F   0  0  0  0  0  0  0  0  0  0  0  0
   -6.8031   -4.8331    0.6135 H   0  0  0  0  0  0  0  0  0  0  0  0
   -7.3353   -4.1852   -0.9469 H   0  0  0  0  0  0  0  0  0  0  0  0
   -6.1684   -5.5107   -0.8876 H   0  0  0  0  0  0  0  0  0  0  0  0
   -6.0207   -2.4640   -2.0832 H   0  0  0  0  0  0  0  0  0  0  0  0
   -4.1008   -0.8875   -2.0773 H   0  0  0  0  0  0  0  0  0  0  0  0
   -2.4447   -2.9042    1.3292 H   0  0  0  0  0  0  0  0  0  0  0  0
   -4.3581   -4.4876    1.3282 H   0  0  0  0  0  0  0  0  0  0  0  0
   -3.0563    2.2448   -0.5454 H   0  0  0  0  0  0  0  0  0  0  0  0
   -4.1915    0.9060   -0.1994 H   0  0  0  0  0  0  0  0  0  0  0  0
   -4.3131    1.8011    2.1213 H   0  0  0  0  0  0  0  0  0  0  0  0
   -2.7344    2.6076    1.9118 H   0  0  0  0  0  0  0  0  0  0  0  0
   -3.2008   -0.4295    2.1318 H   0  0  0  0  0  0  0  0  0  0  0  0
   -1.7130    0.4307    2.6255 H   0  0  0  0  0  0  0  0  0  0  0  0
    3.5359    0.1497   -3.4354 H   0  0  0  0  0  0  0  0  0  0  0  0
    1.0646   -0.0690   -3.0179 H   0  0  0  0  0  0  0  0  0  0  0  0
  1  2  1  0
  1 30  1  0
  1 31  1  0
  1 32  1  0
  2  3  2  0
  2  7  1  0
  3  4  1  0
  3 33  1  0
  4  5  2  0
  4 34  1  0
  5  6  1  0
  5  8  1  0
  6  7  2  0
  6 35  1  0
  7 36  1  0
  8  9  1  0
  8 14  1  0
  9 10  2  0
  9 11  1  0
 11 12  1  0
 11 18  1  0
 12 13  2  0
 12 14  1  0
 14 15  1  0
 14 17  1  0
 15 16  1  0
 15 37  1  0
 15 38  1  0
 16 17  1  0
 16 39  1  0
 16 40  1  0
 17 41  1  0
 17 42  1  0
 18 19  2  0
 18 23  1  0
 19 20  1  0
 20 21  2  0
 20 26  1  0
 21 22  1  0
 21 24  1  0
 22 23  2  0
 22 43  1  0
 23 44  1  0
 24 25  3  0
 26 27  1  0
 26 28  1  0
 26 29  1  0
M  END
>  <group_name>  (1) 
JNS

>  <molecule_index>  (1) 
02536

>  <conformer_index>  (1) 
00

>  <method>  (1) 
b3lyp-d3bj

>  <basis>  (1) 
dzvp

>  <program>  (1) 
psi4

>  <initial_energy>  (1) 
-1106470.9217097827 kilocalorie / mole

>  <final_energy>  (1) 
-1106514.9143749804 kilocalorie / mole

$$$$
