JNS-01564-02
     RDKit          3D

 45 49  0  0  0  0  0  0  0  0999 V2000
   -3.0279    2.4206   -0.3508 C   0  0  0  0  0  0  0  0  0  0  0  0
   -2.1865    1.1793   -0.1838 C   0  0  0  0  0  0  0  0  0  0  0  0
   -2.7651   -0.0902   -0.1224 C   0  0  0  0  0  0  0  0  0  0  0  0
   -4.1245   -0.4275   -0.1864 N   0  0  0  0  0  0  0  0  0  0  0  0
   -4.3341   -1.8017   -0.1150 C   0  0  0  0  0  0  0  0  0  0  0  0
   -5.4206   -2.3525   -0.1478 O   0  0  0  0  0  0  0  0  0  0  0  0
   -2.9444   -2.4442    0.0109 C   0  0  0  0  0  0  0  0  0  0  0  0
   -2.0028   -1.2654    0.0013 C   0  0  0  0  0  0  0  0  0  0  0  0
   -0.6239   -1.1947    0.0816 C   0  0  0  0  0  0  0  0  0  0  0  0
    0.0029    0.0717    0.0454 C   0  0  0  0  0  0  0  0  0  0  0  0
   -0.7881    1.2271   -0.1025 C   0  0  0  0  0  0  0  0  0  0  0  0
    1.4639    0.1290    0.0910 C   0  0  0  0  0  0  0  0  0  0  0  0
    2.4047   -0.7427   -0.5090 C   0  0  0  0  0  0  0  0  0  0  0  0
    2.2147   -1.8626   -1.2394 N   0  0  0  0  0  0  0  0  0  0  0  0
    3.3173   -2.4531   -1.6642 C   0  0  0  0  0  0  0  0  0  0  0  0
    4.6438   -1.9925   -1.4141 C   0  0  0  0  0  0  0  0  0  0  0  0
    4.8443   -0.8457   -0.6705 C   0  0  0  0  0  0  0  0  0  0  0  0
    3.6880   -0.1883   -0.1917 C   0  0  0  0  0  0  0  0  0  0  0  0
    3.5678    0.9244    0.5574 N   0  0  0  0  0  0  0  0  0  0  0  0
    2.2253    1.0734    0.7185 N   0  0  0  0  0  0  0  0  0  0  0  0
    1.7440    2.1949    1.5207 C   0  0  0  0  0  0  0  0  0  0  0  0
    1.8669    3.5788    0.8096 C   0  0  0  0  0  0  0  0  0  0  0  0
    3.0706    3.9299    1.7304 C   0  0  0  0  0  0  0  0  0  0  0  0
    2.7412    2.6882    2.6051 C   0  0  0  0  0  0  0  0  0  0  0  0
    3.0818   -3.7123   -2.4784 C   0  0  0  0  0  0  0  0  0  0  0  0
    2.4073   -3.4529   -3.6232 F   0  0  0  0  0  0  0  0  0  0  0  0
    4.2496   -4.3098   -2.8315 F   0  0  0  0  0  0  0  0  0  0  0  0
    2.3594   -4.6276   -1.7901 F   0  0  0  0  0  0  0  0  0  0  0  0
   -2.4037    3.3163   -0.3992 H   0  0  0  0  0  0  0  0  0  0  0  0
   -3.6222    2.3821   -1.2719 H   0  0  0  0  0  0  0  0  0  0  0  0
   -3.7260    2.5488    0.4856 H   0  0  0  0  0  0  0  0  0  0  0  0
   -4.8933    0.2240   -0.2808 H   0  0  0  0  0  0  0  0  0  0  0  0
   -2.7865   -3.1324   -0.8254 H   0  0  0  0  0  0  0  0  0  0  0  0
   -2.9010   -3.0352    0.9310 H   0  0  0  0  0  0  0  0  0  0  0  0
   -0.0208   -2.0930    0.1609 H   0  0  0  0  0  0  0  0  0  0  0  0
   -0.3054    2.1949   -0.1978 H   0  0  0  0  0  0  0  0  0  0  0  0
    5.4839   -2.5511   -1.8101 H   0  0  0  0  0  0  0  0  0  0  0  0
    5.8403   -0.4672   -0.4590 H   0  0  0  0  0  0  0  0  0  0  0  0
    0.7503    1.9251    1.8760 H   0  0  0  0  0  0  0  0  0  0  0  0
    0.9856    4.2024    0.9871 H   0  0  0  0  0  0  0  0  0  0  0  0
    2.0642    3.5337   -0.2643 H   0  0  0  0  0  0  0  0  0  0  0  0
    3.0323    4.9024    2.2274 H   0  0  0  0  0  0  0  0  0  0  0  0
    4.0276    3.8248    1.2159 H   0  0  0  0  0  0  0  0  0  0  0  0
    3.5667    2.0121    2.8260 H   0  0  0  0  0  0  0  0  0  0  0  0
    2.2131    2.9388    3.5292 H   0  0  0  0  0  0  0  0  0  0  0  0
  1  2  1  0
  1 29  1  0
  1 30  1  0
  1 31  1  0
  2  3  2  0
  2 11  1  0
  3  4  1  0
  3  8  1  0
  4  5  1  0
  4 32  1  0
  5  6  2  0
  5  7  1  0
  7  8  1  0
  7 33  1  0
  7 34  1  0
  8  9  2  0
  9 10  1  0
  9 35  1  0
 10 11  2  0
 10 12  1  0
 11 36  1  0
 12 13  2  0
 12 20  1  0
 13 14  1  0
 13 18  1  0
 14 15  2  0
 15 16  1  0
 15 25  1  0
 16 17  2  0
 16 37  1  0
 17 18  1  0
 17 38  1  0
 18 19  2  0
 19 20  1  0
 20 21  1  0
 21 22  1  0
 21 24  1  0
 21 39  1  0
 22 23  1  0
 22 40  1  0
 22 41  1  0
 23 24  1  0
 23 42  1  0
 23 43  1  0
 24 44  1  0
 24 45  1  0
 25 26  1  0
 25 27  1  0
 25 28  1  0
M  END
>  <group_name>  (1) 
JNS

>  <molecule_index>  (1) 
01564

>  <conformer_index>  (1) 
02

>  <method>  (1) 
b3lyp-d3bj

>  <basis>  (1) 
dzvp

>  <program>  (1) 
psi4

>  <initial_energy>  (1) 
-857414.4917319057 kilocalorie / mole

>  <final_energy>  (1) 
-857426.0670179294 kilocalorie / mole

$$$$
