JNS-01948-02
     RDKit          3D

 33 34  0  0  0  0  0  0  0  0999 V2000
   -0.6541    1.2211   -0.1111 C   0  0  0  0  0  0  0  0  0  0  0  0
    0.0784   -0.0174   -0.0935 O   0  0  0  0  0  0  0  0  0  0  0  0
    1.4250    0.0725   -0.0104 C   0  0  0  0  0  0  0  0  0  0  0  0
    2.0007    1.2664    0.0478 N   0  0  0  0  0  0  0  0  0  0  0  0
    3.3406    1.2920    0.1331 C   0  0  0  0  0  0  0  0  0  0  0  0
    4.1468    0.1669    0.1640 C   0  0  0  0  0  0  0  0  0  0  0  0
    3.5285   -1.1007    0.0978 C   0  0  0  0  0  0  0  0  0  0  0  0
    4.3496   -2.3668    0.0642 C   0  0  0  0  0  0  0  0  0  0  0  0
    4.6104   -2.8564   -1.3708 C   0  0  2  0  0  0  0  0  0  0  0  0
    5.4551   -4.1610   -1.4361 C   0  0  0  0  0  0  0  0  0  0  0  0
    6.5286   -3.8893   -2.5158 C   0  0  0  0  0  0  0  0  0  0  0  0
    5.9770   -2.7508   -3.2681 N   0  0  0  0  0  0  0  0  0  0  0  0
    5.4020   -1.8699   -2.2478 C   0  0  0  0  0  0  0  0  0  0  0  0
    2.1436   -1.1408    0.0103 C   0  0  0  0  0  0  0  0  0  0  0  0
    3.9329    2.6867    0.1957 C   0  0  0  0  0  0  0  0  0  0  0  0
    5.2880    2.6547    0.2693 F   0  0  0  0  0  0  0  0  0  0  0  0
    3.6099    3.4153   -0.8984 F   0  0  0  0  0  0  0  0  0  0  0  0
    3.4907    3.3700    1.2767 F   0  0  0  0  0  0  0  0  0  0  0  0
   -1.7024    0.9297   -0.1818 H   0  0  0  0  0  0  0  0  0  0  0  0
   -0.4740    1.7907    0.8042 H   0  0  0  0  0  0  0  0  0  0  0  0
   -0.3652    1.8300   -0.9716 H   0  0  0  0  0  0  0  0  0  0  0  0
    5.2240    0.2595    0.2379 H   0  0  0  0  0  0  0  0  0  0  0  0
    3.8296   -3.1555    0.6192 H   0  0  0  0  0  0  0  0  0  0  0  0
    5.3088   -2.1997    0.5676 H   0  0  0  0  0  0  0  0  0  0  0  0
    3.6451   -3.0326   -1.8561 H   0  0  0  0  0  0  0  0  0  0  0  0
    4.8261   -5.0139   -1.7035 H   0  0  0  0  0  0  0  0  0  0  0  0
    5.9188   -4.3878   -0.4709 H   0  0  0  0  0  0  0  0  0  0  0  0
    6.6941   -4.7452   -3.1773 H   0  0  0  0  0  0  0  0  0  0  0  0
    7.4898   -3.6469   -2.0301 H   0  0  0  0  0  0  0  0  0  0  0  0
    6.6913   -2.2795   -3.8186 H   0  0  0  0  0  0  0  0  0  0  0  0
    6.1714   -1.3629   -1.6338 H   0  0  0  0  0  0  0  0  0  0  0  0
    4.7716   -1.0991   -2.7005 H   0  0  0  0  0  0  0  0  0  0  0  0
    1.5998   -2.0795   -0.0411 H   0  0  0  0  0  0  0  0  0  0  0  0
  1  2  1  0
  1 19  1  0
  1 20  1  0
  1 21  1  0
  2  3  1  0
  3  4  2  0
  3 14  1  0
  4  5  1  0
  5  6  2  0
  5 15  1  0
  6  7  1  0
  6 22  1  0
  7  8  1  0
  7 14  2  0
  8  9  1  0
  8 23  1  0
  8 24  1  0
  9 10  1  0
  9 13  1  0
  9 25  1  6
 10 11  1  0
 10 26  1  0
 10 27  1  0
 11 12  1  0
 11 28  1  0
 11 29  1  0
 12 13  1  0
 12 30  1  0
 13 31  1  0
 13 32  1  0
 14 33  1  0
 15 16  1  0
 15 17  1  0
 15 18  1  0
M  END
>  <group_name>  (1) 
JNS

>  <molecule_index>  (1) 
01948

>  <conformer_index>  (1) 
02

>  <method>  (1) 
b3lyp-d3bj

>  <basis>  (1) 
dzvp

>  <program>  (1) 
psi4

>  <initial_energy>  (1) 
-596608.1479368284 kilocalorie / mole

>  <final_energy>  (1) 
-596614.7626439822 kilocalorie / mole

$$$$
