JNS-01356-02
     RDKit          3D

 33 36  0  0  0  0  0  0  0  0999 V2000
   -0.4371   -3.2464   -0.4140 F   0  0  0  0  0  0  0  0  0  0  0  0
   -0.5451   -2.6034    0.7770 C   0  0  0  0  0  0  0  0  0  0  0  0
   -1.4583   -3.2473    1.5096 F   0  0  0  0  0  0  0  0  0  0  0  0
    0.6528   -2.7094    1.3994 F   0  0  0  0  0  0  0  0  0  0  0  0
   -0.9304   -1.1539    0.5860 C   0  0  0  0  0  0  0  0  0  0  0  0
   -2.1276   -0.6949    0.8628 N   0  0  0  0  0  0  0  0  0  0  0  0
   -2.0605    0.6577    0.5743 C   0  0  0  0  0  0  0  0  0  0  0  0
   -0.7625    0.9936    0.1116 C   0  0  0  0  0  0  0  0  0  0  0  0
   -0.3284    2.1944   -0.2397 N   0  0  0  0  0  0  0  0  0  0  0  0
   -1.2519    3.1573   -0.1357 C   0  0  0  0  0  0  0  0  0  0  0  0
   -2.5759    2.9617    0.3012 C   0  0  0  0  0  0  0  0  0  0  0  0
   -3.0033    1.6838    0.6691 C   0  0  0  0  0  0  0  0  0  0  0  0
   -0.7578    4.5375   -0.5309 C   0  0  0  0  0  0  0  0  0  0  0  0
   -1.7248    5.4760   -0.3806 F   0  0  0  0  0  0  0  0  0  0  0  0
    0.2952    4.9206    0.2274 F   0  0  0  0  0  0  0  0  0  0  0  0
   -0.3593    4.5727   -1.8215 F   0  0  0  0  0  0  0  0  0  0  0  0
   -0.0411   -0.1969    0.1163 N   0  0  0  0  0  0  0  0  0  0  0  0
    1.3274   -0.3334   -0.2812 C   0  0  0  0  0  0  0  0  0  0  0  0
    2.2992    0.3826    0.4310 C   0  0  0  0  0  0  0  0  0  0  0  0
    3.5909    0.2180   -0.0257 C   0  0  0  0  0  0  0  0  0  0  0  0
    3.9675   -0.5985   -1.1080 C   0  0  0  0  0  0  0  0  0  0  0  0
    5.3513   -0.5332   -1.2825 N   0  0  0  0  0  0  0  0  0  0  0  0
    5.7340    0.2753   -0.3509 C   0  0  0  0  0  0  0  0  0  0  0  0
    6.9790    0.6634   -0.0961 O   0  0  0  0  0  0  0  0  0  0  0  0
    4.7533    0.7909    0.4699 O   0  0  0  0  0  0  0  0  0  0  0  0
    2.9693   -1.2920   -1.7956 C   0  0  0  0  0  0  0  0  0  0  0  0
    3.4015   -2.4057   -3.2736 Br  0  0  0  0  0  0  0  0  0  0  0  0
    1.6436   -1.1429   -1.3821 C   0  0  0  0  0  0  0  0  0  0  0  0
   -3.2522    3.8066    0.3519 H   0  0  0  0  0  0  0  0  0  0  0  0
   -4.0152    1.4953    1.0146 H   0  0  0  0  0  0  0  0  0  0  0  0
    2.0429    1.0195    1.2693 H   0  0  0  0  0  0  0  0  0  0  0  0
    6.9740    1.2843    0.6532 H   0  0  0  0  0  0  0  0  0  0  0  0
    0.8518   -1.6559   -1.9148 H   0  0  0  0  0  0  0  0  0  0  0  0
  1  2  1  0
  2  3  1  0
  2  4  1  0
  2  5  1  0
  5  6  2  0
  5 17  1  0
  6  7  1  0
  7  8  2  0
  7 12  1  0
  8  9  1  0
  8 17  1  0
  9 10  2  0
 10 11  1  0
 10 13  1  0
 11 12  2  0
 11 29  1  0
 12 30  1  0
 13 14  1  0
 13 15  1  0
 13 16  1  0
 17 18  1  0
 18 19  2  0
 18 28  1  0
 19 20  1  0
 19 31  1  0
 20 21  2  0
 20 25  1  0
 21 22  1  0
 21 26  1  0
 22 23  2  0
 23 24  1  0
 23 25  1  0
 24 32  1  0
 26 27  1  0
 26 28  2  0
 28 33  1  0
M  END
>  <group_name>  (1) 
JNS

>  <molecule_index>  (1) 
01356

>  <conformer_index>  (1) 
02

>  <method>  (1) 
b3lyp-d3bj

>  <basis>  (1) 
dzvp

>  <program>  (1) 
psi4

>  <initial_energy>  (1) 
-2583455.705939653 kilocalorie / mole

>  <final_energy>  (1) 
-2583542.3048172216 kilocalorie / mole

$$$$
