JNS-01795-09
     RDKit          3D

 43 46  0  0  0  0  0  0  0  0999 V2000
   -0.2835    2.0063   -0.0962 C   0  0  0  0  0  0  0  0  0  0  0  0
   -0.0653    0.5178   -0.4296 C   0  0  0  0  0  0  0  0  0  0  0  0
   -0.8472   -0.3385    0.5920 C   0  0  0  0  0  0  0  0  0  0  0  0
   -0.5994    0.2469   -1.8555 C   0  0  0  0  0  0  0  0  0  0  0  0
    1.4229    0.2238   -0.3580 C   0  0  0  0  0  0  0  0  0  0  0  0
    2.3286    1.1605   -0.1322 N   0  0  0  0  0  0  0  0  0  0  0  0
    3.5540    0.5219   -0.1409 C   0  0  0  0  0  0  0  0  0  0  0  0
    3.3725   -0.8642   -0.3826 C   0  0  0  0  0  0  0  0  0  0  0  0
    4.3154   -1.7902   -0.4556 N   0  0  0  0  0  0  0  0  0  0  0  0
    5.5586   -1.3185   -0.2778 C   0  0  0  0  0  0  0  0  0  0  0  0
    5.8800    0.0273   -0.0338 C   0  0  0  0  0  0  0  0  0  0  0  0
    4.8583    0.9818    0.0388 C   0  0  0  0  0  0  0  0  0  0  0  0
    6.6401   -2.3764   -0.3505 C   0  0  0  0  0  0  0  0  0  0  0  0
    7.8799   -1.8412   -0.2000 F   0  0  0  0  0  0  0  0  0  0  0  0
    6.6310   -3.0295   -1.5361 F   0  0  0  0  0  0  0  0  0  0  0  0
    6.4935   -3.3122    0.6189 F   0  0  0  0  0  0  0  0  0  0  0  0
    2.0011   -1.0409   -0.5233 N   0  0  0  0  0  0  0  0  0  0  0  0
    1.4081   -2.3227   -0.7793 C   0  0  0  0  0  0  0  0  0  0  0  0
    1.1909   -2.7262   -2.0899 C   0  0  0  0  0  0  0  0  0  0  0  0
    0.6437   -3.9998   -2.3209 C   0  0  0  0  0  0  0  0  0  0  0  0
    0.3510   -4.8373   -1.2044 C   0  0  0  0  0  0  0  0  0  0  0  0
   -0.1650   -6.0172   -1.7052 N   0  0  0  0  0  0  0  0  0  0  0  0
   -0.2003   -5.9518   -3.0903 C   0  0  0  0  0  0  0  0  0  0  0  0
    0.2835   -4.7337   -3.5045 C   0  0  0  0  0  0  0  0  0  0  0  0
    0.5977   -4.4375    0.1153 C   0  0  0  0  0  0  0  0  0  0  0  0
    1.1338   -3.1711    0.3149 C   0  0  0  0  0  0  0  0  0  0  0  0
    0.0781    2.2470    0.9065 H   0  0  0  0  0  0  0  0  0  0  0  0
    0.2424    2.6546   -0.8006 H   0  0  0  0  0  0  0  0  0  0  0  0
   -1.3545    2.2288   -0.1454 H   0  0  0  0  0  0  0  0  0  0  0  0
   -0.4517   -0.1999    1.6037 H   0  0  0  0  0  0  0  0  0  0  0  0
   -0.8161   -1.4024    0.3516 H   0  0  0  0  0  0  0  0  0  0  0  0
   -1.8967   -0.0254    0.5946 H   0  0  0  0  0  0  0  0  0  0  0  0
   -0.0250    0.8066   -2.6009 H   0  0  0  0  0  0  0  0  0  0  0  0
   -0.5648   -0.8133   -2.1122 H   0  0  0  0  0  0  0  0  0  0  0  0
   -1.6431    0.5731   -1.9181 H   0  0  0  0  0  0  0  0  0  0  0  0
    6.9163    0.3160    0.0966 H   0  0  0  0  0  0  0  0  0  0  0  0
    5.0703    2.0304    0.2266 H   0  0  0  0  0  0  0  0  0  0  0  0
    1.4494   -2.0650   -2.9118 H   0  0  0  0  0  0  0  0  0  0  0  0
   -0.4442   -6.8149   -1.1524 H   0  0  0  0  0  0  0  0  0  0  0  0
   -0.5703   -6.7868   -3.6705 H   0  0  0  0  0  0  0  0  0  0  0  0
    0.3746   -4.4038   -4.5308 H   0  0  0  0  0  0  0  0  0  0  0  0
    0.3877   -5.0904    0.9583 H   0  0  0  0  0  0  0  0  0  0  0  0
    1.3507   -2.8186    1.3184 H   0  0  0  0  0  0  0  0  0  0  0  0
  1  2  1  0
  1 27  1  0
  1 28  1  0
  1 29  1  0
  2  3  1  0
  2  4  1  0
  2  5  1  0
  3 30  1  0
  3 31  1  0
  3 32  1  0
  4 33  1  0
  4 34  1  0
  4 35  1  0
  5  6  2  0
  5 17  1  0
  6  7  1  0
  7  8  2  0
  7 12  1  0
  8  9  1  0
  8 17  1  0
  9 10  2  0
 10 11  1  0
 10 13  1  0
 11 12  2  0
 11 36  1  0
 12 37  1  0
 13 14  1  0
 13 15  1  0
 13 16  1  0
 17 18  1  0
 18 19  2  0
 18 26  1  0
 19 20  1  0
 19 38  1  0
 20 21  2  0
 20 24  1  0
 21 22  1  0
 21 25  1  0
 22 23  1  0
 22 39  1  0
 23 24  2  0
 23 40  1  0
 24 41  1  0
 25 26  2  0
 25 42  1  0
 26 43  1  0
M  END
>  <group_name>  (1) 
JNS

>  <molecule_index>  (1) 
01795

>  <conformer_index>  (1) 
09

>  <method>  (1) 
b3lyp-d3bj

>  <basis>  (1) 
dzvp

>  <program>  (1) 
psi4

>  <initial_energy>  (1) 
-786262.1425860994 kilocalorie / mole

>  <final_energy>  (1) 
-786318.4606167173 kilocalorie / mole

$$$$
