JNS-01596-02
     RDKit          3D

 37 41  0  0  0  0  0  0  0  0999 V2000
   -3.7128    2.0850    1.5275 F   0  0  0  0  0  0  0  0  0  0  0  0
   -3.4799    0.8478    1.0899 C   0  0  0  0  0  0  0  0  0  0  0  0
   -4.4647   -0.0732    1.0579 N   0  0  0  0  0  0  0  0  0  0  0  0
   -4.0655   -1.2840    0.5834 N   0  0  0  0  0  0  0  0  0  0  0  0
   -2.7576   -1.0925    0.3070 C   0  0  0  0  0  0  0  0  0  0  0  0
   -2.3207    0.2479    0.6065 C   0  0  0  0  0  0  0  0  0  0  0  0
   -0.9831    0.6606    0.3827 C   0  0  0  0  0  0  0  0  0  0  0  0
   -0.1140   -0.2789   -0.1219 C   0  0  0  0  0  0  0  0  0  0  0  0
   -0.5285   -1.6251   -0.3990 C   0  0  0  0  0  0  0  0  0  0  0  0
   -1.8249   -2.0362   -0.2048 C   0  0  0  0  0  0  0  0  0  0  0  0
    1.2561    0.0634   -0.3228 N   0  0  0  0  0  0  0  0  0  0  0  0
    2.0357   -0.1401   -1.4611 C   0  0  0  0  0  0  0  0  0  0  0  0
    3.2978    0.2168   -1.2936 N   0  0  0  0  0  0  0  0  0  0  0  0
    3.3805    0.6868    0.0040 C   0  0  0  0  0  0  0  0  0  0  0  0
    2.1084    0.6118    0.6345 C   0  0  0  0  0  0  0  0  0  0  0  0
    1.8065    0.9899    1.8642 N   0  0  0  0  0  0  0  0  0  0  0  0
    2.8442    1.4849    2.5577 C   0  0  0  0  0  0  0  0  0  0  0  0
    4.1508    1.6102    2.0605 C   0  0  0  0  0  0  0  0  0  0  0  0
    4.4382    1.2042    0.7514 C   0  0  0  0  0  0  0  0  0  0  0  0
    2.4974    1.9239    3.9647 C   0  0  0  0  0  0  0  0  0  0  0  0
    3.5756    2.4345    4.6131 F   0  0  0  0  0  0  0  0  0  0  0  0
    1.5396    2.8828    3.9695 F   0  0  0  0  0  0  0  0  0  0  0  0
    2.0319    0.8966    4.7136 F   0  0  0  0  0  0  0  0  0  0  0  0
    1.4799   -0.6927   -2.7060 C   0  0  0  0  0  0  0  0  0  0  0  0
    2.2781   -0.5375   -3.9875 C   0  0  0  0  0  0  0  0  0  0  0  0
    2.1808   -1.8922   -3.3486 C   0  0  0  0  0  0  0  0  0  0  0  0
   -5.4258    0.0595    1.3506 H   0  0  0  0  0  0  0  0  0  0  0  0
   -0.6490    1.6654    0.6154 H   0  0  0  0  0  0  0  0  0  0  0  0
    0.2162   -2.3272   -0.7612 H   0  0  0  0  0  0  0  0  0  0  0  0
   -2.1357   -3.0554   -0.4131 H   0  0  0  0  0  0  0  0  0  0  0  0
    4.9273    2.0244    2.6927 H   0  0  0  0  0  0  0  0  0  0  0  0
    5.4375    1.2907    0.3350 H   0  0  0  0  0  0  0  0  0  0  0  0
    0.3991   -0.6637   -2.7851 H   0  0  0  0  0  0  0  0  0  0  0  0
    1.7110   -0.3499   -4.8940 H   0  0  0  0  0  0  0  0  0  0  0  0
    3.2197   -0.0070   -3.8988 H   0  0  0  0  0  0  0  0  0  0  0  0
    1.5455   -2.6454   -3.8054 H   0  0  0  0  0  0  0  0  0  0  0  0
    3.0582   -2.2678   -2.8320 H   0  0  0  0  0  0  0  0  0  0  0  0
  1  2  1  0
  2  3  1  0
  2  6  2  0
  3  4  1  0
  3 27  1  0
  4  5  2  0
  5  6  1  0
  5 10  1  0
  6  7  1  0
  7  8  2  0
  7 28  1  0
  8  9  1  0
  8 11  1  0
  9 10  2  0
  9 29  1  0
 10 30  1  0
 11 12  1  0
 11 15  1  0
 12 13  2  0
 12 24  1  0
 13 14  1  0
 14 15  2  0
 14 19  1  0
 15 16  1  0
 16 17  2  0
 17 18  1  0
 17 20  1  0
 18 19  2  0
 18 31  1  0
 19 32  1  0
 20 21  1  0
 20 22  1  0
 20 23  1  0
 24 25  1  0
 24 26  1  0
 24 33  1  0
 25 26  1  0
 25 34  1  0
 25 35  1  0
 26 36  1  0
 26 37  1  0
M  END
>  <group_name>  (1) 
JNS

>  <molecule_index>  (1) 
01596

>  <conformer_index>  (1) 
02

>  <method>  (1) 
b3lyp-d3bj

>  <basis>  (1) 
dzvp

>  <program>  (1) 
psi4

>  <initial_energy>  (1) 
-833145.9720515242 kilocalorie / mole

>  <final_energy>  (1) 
-833195.8237370934 kilocalorie / mole

$$$$
