JNS-01586-07
     RDKit          3D

 40 44  0  0  0  0  0  0  0  0999 V2000
   -0.4597    0.5747   -0.8107 F   0  0  0  0  0  0  0  0  0  0  0  0
    0.0987   -0.0500    0.2586 C   0  0  0  0  0  0  0  0  0  0  0  0
   -0.3613    0.5755    1.3684 F   0  0  0  0  0  0  0  0  0  0  0  0
   -0.3882   -1.3114    0.2816 F   0  0  0  0  0  0  0  0  0  0  0  0
    1.6158   -0.0304    0.1911 C   0  0  0  0  0  0  0  0  0  0  0  0
    2.2153   -0.6240    1.2055 N   0  0  0  0  0  0  0  0  0  0  0  0
    3.5669   -0.6095    1.1668 C   0  0  0  0  0  0  0  0  0  0  0  0
    4.5100   -1.1565    2.0657 C   0  0  0  0  0  0  0  0  0  0  0  0
    5.7241   -0.8352    1.5184 N   0  0  0  0  0  0  0  0  0  0  0  0
    5.6599   -0.1581    0.3332 N   0  0  0  0  0  0  0  0  0  0  0  0
    4.3409   -0.0175    0.1139 C   0  0  0  0  0  0  0  0  0  0  0  0
    3.6598    0.6091   -0.9568 C   0  0  0  0  0  0  0  0  0  0  0  0
    2.2809    0.5976   -0.9057 C   0  0  0  0  0  0  0  0  0  0  0  0
    7.0220   -1.0658    2.0721 C   0  0  0  0  0  0  0  0  0  0  0  0
    8.0202   -1.5956    1.2513 C   0  0  0  0  0  0  0  0  0  0  0  0
    9.2906   -1.8252    1.7847 C   0  0  0  0  0  0  0  0  0  0  0  0
    9.5571   -1.5271    3.1254 C   0  0  0  0  0  0  0  0  0  0  0  0
    8.5512   -0.9833    3.9324 C   0  0  0  0  0  0  0  0  0  0  0  0
    7.2803   -0.7438    3.4075 C   0  0  0  0  0  0  0  0  0  0  0  0
    4.2822   -1.9669    3.2646 C   0  0  0  0  0  0  0  0  0  0  0  0
    3.1623   -1.6454    4.0883 C   0  0  0  0  0  0  0  0  0  0  0  0
    2.8610   -2.3654    5.2323 C   0  0  0  0  0  0  0  0  0  0  0  0
    3.7043   -3.4423    5.5567 C   0  0  0  0  0  0  0  0  0  0  0  0
    3.7017   -4.3419    6.5885 N   0  0  0  0  0  0  0  0  0  0  0  0
    4.7214   -5.2446    6.4993 N   0  0  0  0  0  0  0  0  0  0  0  0
    5.3926   -4.9293    5.4026 C   0  0  0  0  0  0  0  0  0  0  0  0
    4.8148   -3.7945    4.7441 C   0  0  0  0  0  0  0  0  0  0  0  0
    5.0981   -3.0538    3.5858 C   0  0  0  0  0  0  0  0  0  0  0  0
    4.2002    1.0764   -1.7749 H   0  0  0  0  0  0  0  0  0  0  0  0
    1.6923    1.0602   -1.6893 H   0  0  0  0  0  0  0  0  0  0  0  0
    7.7944   -1.8149    0.2131 H   0  0  0  0  0  0  0  0  0  0  0  0
   10.0709   -2.2393    1.1523 H   0  0  0  0  0  0  0  0  0  0  0  0
   10.5453   -1.7112    3.5380 H   0  0  0  0  0  0  0  0  0  0  0  0
    8.7563   -0.7378    4.9706 H   0  0  0  0  0  0  0  0  0  0  0  0
    6.4971   -0.3170    4.0248 H   0  0  0  0  0  0  0  0  0  0  0  0
    2.5261   -0.8171    3.7968 H   0  0  0  0  0  0  0  0  0  0  0  0
    2.0024   -2.1036    5.8443 H   0  0  0  0  0  0  0  0  0  0  0  0
    3.0528   -4.4143    7.3595 H   0  0  0  0  0  0  0  0  0  0  0  0
    6.2603   -5.5113    5.1177 H   0  0  0  0  0  0  0  0  0  0  0  0
    5.9326   -3.3315    2.9506 H   0  0  0  0  0  0  0  0  0  0  0  0
  1  2  1  0
  2  3  1  0
  2  4  1  0
  2  5  1  0
  5  6  2  0
  5 13  1  0
  6  7  1  0
  7  8  2  0
  7 11  1  0
  8  9  1  0
  8 20  1  0
  9 10  1  0
  9 14  1  0
 10 11  2  0
 11 12  1  0
 12 13  2  0
 12 29  1  0
 13 30  1  0
 14 15  2  0
 14 19  1  0
 15 16  1  0
 15 31  1  0
 16 17  2  0
 16 32  1  0
 17 18  1  0
 17 33  1  0
 18 19  2  0
 18 34  1  0
 19 35  1  0
 20 21  2  0
 20 28  1  0
 21 22  1  0
 21 36  1  0
 22 23  2  0
 22 37  1  0
 23 24  1  0
 23 27  1  0
 24 25  1  0
 24 38  1  0
 25 26  2  0
 26 27  1  0
 26 39  1  0
 27 28  2  0
 28 40  1  0
M  END
>  <group_name>  (1) 
JNS

>  <molecule_index>  (1) 
01586

>  <conformer_index>  (1) 
07

>  <method>  (1) 
b3lyp-d3bj

>  <basis>  (1) 
dzvp

>  <program>  (1) 
psi4

>  <initial_energy>  (1) 
-842661.2622707798 kilocalorie / mole

>  <final_energy>  (1) 
-842666.6625416498 kilocalorie / mole

$$$$
