JNS-01374-02
     RDKit          3D

 32 35  0  0  0  0  0  0  0  0999 V2000
   -0.3452    0.3150   -2.0232 F   0  0  0  0  0  0  0  0  0  0  0  0
   -0.0074    0.5317   -0.7243 C   0  0  0  0  0  0  0  0  0  0  0  0
   -0.7400   -0.3283    0.0237 F   0  0  0  0  0  0  0  0  0  0  0  0
   -0.3652    1.7780   -0.4058 F   0  0  0  0  0  0  0  0  0  0  0  0
    1.4708    0.3140   -0.5078 C   0  0  0  0  0  0  0  0  0  0  0  0
    2.3036    1.2720   -0.1782 N   0  0  0  0  0  0  0  0  0  0  0  0
    3.5354    0.6446   -0.0815 C   0  0  0  0  0  0  0  0  0  0  0  0
    3.4031   -0.7383   -0.3703 C   0  0  0  0  0  0  0  0  0  0  0  0
    4.3647   -1.6487   -0.3715 N   0  0  0  0  0  0  0  0  0  0  0  0
    5.5720   -1.1614   -0.0620 C   0  0  0  0  0  0  0  0  0  0  0  0
    5.8445    0.1860    0.2431 C   0  0  0  0  0  0  0  0  0  0  0  0
    4.8084    1.1229    0.2366 C   0  0  0  0  0  0  0  0  0  0  0  0
    6.6812   -2.1988   -0.0632 C   0  0  0  0  0  0  0  0  0  0  0  0
    7.8767   -1.6515    0.2702 F   0  0  0  0  0  0  0  0  0  0  0  0
    6.4326   -3.1913    0.8195 F   0  0  0  0  0  0  0  0  0  0  0  0
    6.8253   -2.7672   -1.2811 F   0  0  0  0  0  0  0  0  0  0  0  0
    2.0550   -0.9358   -0.6498 N   0  0  0  0  0  0  0  0  0  0  0  0
    1.4478   -2.1883   -0.9839 C   0  0  0  0  0  0  0  0  0  0  0  0
    1.0779   -2.4675   -2.2927 C   0  0  0  0  0  0  0  0  0  0  0  0
    0.5005   -3.7238   -2.5213 C   0  0  0  0  0  0  0  0  0  0  0  0
    0.3634   -4.5926   -1.4025 C   0  0  0  0  0  0  0  0  0  0  0  0
   -0.2097   -5.7326   -1.8845 N   0  0  0  0  0  0  0  0  0  0  0  0
   -0.4489   -5.6643   -3.2241 N   0  0  0  0  0  0  0  0  0  0  0  0
   -0.0309   -4.4710   -3.6200 C   0  0  0  0  0  0  0  0  0  0  0  0
    0.7253   -4.3412   -0.1372 N   0  0  0  0  0  0  0  0  0  0  0  0
    1.2616   -3.1398    0.0495 C   0  0  0  0  0  0  0  0  0  0  0  0
    6.8582    0.4849    0.4816 H   0  0  0  0  0  0  0  0  0  0  0  0
    4.9811    2.1698    0.4673 H   0  0  0  0  0  0  0  0  0  0  0  0
    1.2320   -1.7402   -3.0842 H   0  0  0  0  0  0  0  0  0  0  0  0
   -0.4508   -6.5696   -1.3695 H   0  0  0  0  0  0  0  0  0  0  0  0
   -0.1210   -4.1878   -4.6613 H   0  0  0  0  0  0  0  0  0  0  0  0
    1.5723   -2.8880    1.0615 H   0  0  0  0  0  0  0  0  0  0  0  0
  1  2  1  0
  2  3  1  0
  2  4  1  0
  2  5  1  0
  5  6  2  0
  5 17  1  0
  6  7  1  0
  7  8  2  0
  7 12  1  0
  8  9  1  0
  8 17  1  0
  9 10  2  0
 10 11  1  0
 10 13  1  0
 11 12  2  0
 11 27  1  0
 12 28  1  0
 13 14  1  0
 13 15  1  0
 13 16  1  0
 17 18  1  0
 18 19  2  0
 18 26  1  0
 19 20  1  0
 19 29  1  0
 20 21  2  0
 20 24  1  0
 21 22  1  0
 21 25  1  0
 22 23  1  0
 22 30  1  0
 23 24  2  0
 24 31  1  0
 25 26  2  0
 26 32  1  0
M  END
>  <group_name>  (1) 
JNS

>  <molecule_index>  (1) 
01374

>  <conformer_index>  (1) 
02

>  <method>  (1) 
b3lyp-d3bj

>  <basis>  (1) 
dzvp

>  <program>  (1) 
psi4

>  <initial_energy>  (1) 
-919220.5820037989 kilocalorie / mole

>  <final_energy>  (1) 
-919279.9089377244 kilocalorie / mole

$$$$
