JNS-02157-02
     RDKit          3D

 42 45  0  0  0  0  0  0  0  0999 V2000
   -2.4329    2.6246   -1.2162 C   0  0  0  0  0  0  0  0  0  0  0  0
   -1.9410    1.6827   -0.1130 C   0  0  2  0  0  0  0  0  0  0  0  0
   -2.3453    2.1565    1.3043 C   0  0  0  0  0  0  0  0  0  0  0  0
   -1.4150    3.2516    1.7156 C   0  0  0  0  0  0  0  0  0  0  0  0
   -0.2133    3.5209    1.1113 C   0  0  0  0  0  0  0  0  0  0  0  0
    0.3388    2.7217   -0.0280 C   0  0  0  0  0  0  0  0  0  0  0  0
   -0.4732    1.5062   -0.1735 N   0  0  0  0  0  0  0  0  0  0  0  0
    0.0282    0.2395   -0.1015 C   0  0  0  0  0  0  0  0  0  0  0  0
   -0.6613   -0.7791   -0.1423 O   0  0  0  0  0  0  0  0  0  0  0  0
    1.5291    0.0814   -0.0037 C   0  0  0  0  0  0  0  0  0  0  0  0
    2.2631   -0.2664   -1.1390 C   0  0  0  0  0  0  0  0  0  0  0  0
    3.6302   -0.5075   -1.0106 C   0  0  0  0  0  0  0  0  0  0  0  0
    4.2749   -0.4304    0.1581 N   0  0  0  0  0  0  0  0  0  0  0  0
    3.5829   -0.1087    1.2498 C   0  0  0  0  0  0  0  0  0  0  0  0
    2.2039    0.1588    1.2201 C   0  0  0  0  0  0  0  0  0  0  0  0
    1.3091    0.5943    2.6551 Cl  0  0  0  0  0  0  0  0  0  0  0  0
    4.3886   -0.0414    2.5471 C   0  0  0  0  0  0  0  0  0  0  0  0
    4.3305    1.1990    3.0924 F   0  0  0  0  0  0  0  0  0  0  0  0
    3.9067   -0.9119    3.4684 F   0  0  0  0  0  0  0  0  0  0  0  0
    5.6794   -0.3362    2.3478 F   0  0  0  0  0  0  0  0  0  0  0  0
    0.3739    4.6019    1.7129 N   0  0  0  0  0  0  0  0  0  0  0  0
   -0.3939    5.0295    2.6684 N   0  0  0  0  0  0  0  0  0  0  0  0
   -1.5072    4.2130    2.6925 N   0  0  0  0  0  0  0  0  0  0  0  0
   -2.5152    4.3984    3.6637 C   0  0  0  0  0  0  0  0  0  0  0  0
   -2.5269    5.5654    4.3100 N   0  0  0  0  0  0  0  0  0  0  0  0
   -3.4723    5.7140    5.2396 C   0  0  0  0  0  0  0  0  0  0  0  0
   -4.3961    4.7015    5.4894 C   0  0  0  0  0  0  0  0  0  0  0  0
   -5.3541    4.8585    6.4244 F   0  0  0  0  0  0  0  0  0  0  0  0
   -4.3121    3.5283    4.7490 C   0  0  0  0  0  0  0  0  0  0  0  0
   -3.3544    3.3710    3.8288 N   0  0  0  0  0  0  0  0  0  0  0  0
   -3.5269    2.6276   -1.2337 H   0  0  0  0  0  0  0  0  0  0  0  0
   -2.1010    3.6560   -1.0634 H   0  0  0  0  0  0  0  0  0  0  0  0
   -2.0789    2.2861   -2.1943 H   0  0  0  0  0  0  0  0  0  0  0  0
   -2.3606    0.6912   -0.2782 H   0  0  0  0  0  0  0  0  0  0  0  0
   -2.2801    1.3238    2.0117 H   0  0  0  0  0  0  0  0  0  0  0  0
   -3.3861    2.4897    1.3080 H   0  0  0  0  0  0  0  0  0  0  0  0
    1.3801    2.4607    0.1561 H   0  0  0  0  0  0  0  0  0  0  0  0
    0.3152    3.2990   -0.9607 H   0  0  0  0  0  0  0  0  0  0  0  0
    1.7705   -0.3547   -2.1029 H   0  0  0  0  0  0  0  0  0  0  0  0
    4.2330   -0.7757   -1.8753 H   0  0  0  0  0  0  0  0  0  0  0  0
   -3.5043    6.6528    5.7895 H   0  0  0  0  0  0  0  0  0  0  0  0
   -5.0137    2.7109    4.9027 H   0  0  0  0  0  0  0  0  0  0  0  0
  1  2  1  0
  1 31  1  0
  1 32  1  0
  1 33  1  0
  2  3  1  0
  2  7  1  0
  2 34  1  6
  3  4  1  0
  3 35  1  0
  3 36  1  0
  4  5  2  0
  4 23  1  0
  5  6  1  0
  5 21  1  0
  6  7  1  0
  6 37  1  0
  6 38  1  0
  7  8  1  0
  8  9  2  0
  8 10  1  0
 10 11  2  0
 10 15  1  0
 11 12  1  0
 11 39  1  0
 12 13  2  0
 12 40  1  0
 13 14  1  0
 14 15  2  0
 14 17  1  0
 15 16  1  0
 17 18  1  0
 17 19  1  0
 17 20  1  0
 21 22  2  0
 22 23  1  0
 23 24  1  0
 24 25  2  0
 24 30  1  0
 25 26  1  0
 26 27  2  0
 26 41  1  0
 27 28  1  0
 27 29  1  0
 29 30  2  0
 29 42  1  0
M  END
>  <group_name>  (1) 
JNS

>  <molecule_index>  (1) 
02157

>  <conformer_index>  (1) 
02

>  <method>  (1) 
b3lyp-d3bj

>  <basis>  (1) 
dzvp

>  <program>  (1) 
psi4

>  <initial_energy>  (1) 
-1238263.169389992 kilocalorie / mole

>  <final_energy>  (1) 
-1238276.4158671447 kilocalorie / mole

$$$$
