JNS-01548-04
     RDKit          3D

 36 39  0  0  0  0  0  0  0  0999 V2000
   -2.9768   -1.7535   -1.8925 C   0  0  0  0  0  0  0  0  0  0  0  0
   -2.1365   -0.9491   -0.9358 C   0  0  0  0  0  0  0  0  0  0  0  0
   -0.7422   -0.9652   -0.9763 C   0  0  0  0  0  0  0  0  0  0  0  0
    0.0231   -0.2003   -0.0829 C   0  0  0  0  0  0  0  0  0  0  0  0
   -0.5647    0.5879    0.9046 C   0  0  0  0  0  0  0  0  0  0  0  0
   -1.9558    0.5926    0.9573 C   0  0  0  0  0  0  0  0  0  0  0  0
   -2.7491   -0.1535    0.0514 C   0  0  0  0  0  0  0  0  0  0  0  0
   -4.1232   -0.0421    0.2263 N   0  0  0  0  0  0  0  0  0  0  0  0
   -4.3920    0.7417    1.2106 C   0  0  0  0  0  0  0  0  0  0  0  0
   -5.6585    1.0139    1.5820 O   0  0  0  0  0  0  0  0  0  0  0  0
   -3.0018    1.4621    2.0707 S   0  0  0  0  0  0  0  0  0  0  0  0
    1.4546   -0.2526   -0.1526 N   0  0  0  0  0  0  0  0  0  0  0  0
    2.2907   -0.7281    0.8526 C   0  0  0  0  0  0  0  0  0  0  0  0
    3.6104   -0.6062    0.3454 C   0  0  0  0  0  0  0  0  0  0  0  0
    4.6640   -1.0194    1.1639 C   0  0  0  0  0  0  0  0  0  0  0  0
    4.3203   -1.5171    2.4227 C   0  0  0  0  0  0  0  0  0  0  0  0
    2.9659   -1.5784    2.8035 C   0  0  0  0  0  0  0  0  0  0  0  0
    1.9361   -1.1921    2.0420 N   0  0  0  0  0  0  0  0  0  0  0  0
    2.5655   -2.1024    4.1709 C   0  0  0  0  0  0  0  0  0  0  0  0
    1.7479   -3.1736    4.0757 F   0  0  0  0  0  0  0  0  0  0  0  0
    1.9125   -1.1596    4.8894 F   0  0  0  0  0  0  0  0  0  0  0  0
    3.6465   -2.4830    4.8964 F   0  0  0  0  0  0  0  0  0  0  0  0
    3.5821   -0.0645   -0.9277 N   0  0  0  0  0  0  0  0  0  0  0  0
    2.3077    0.1290   -1.1772 C   0  0  0  0  0  0  0  0  0  0  0  0
    1.8142    0.7314   -2.4729 C   0  0  0  0  0  0  0  0  0  0  0  0
    1.2455   -0.2100   -3.2711 F   0  0  0  0  0  0  0  0  0  0  0  0
    2.8209    1.2890   -3.1542 F   0  0  0  0  0  0  0  0  0  0  0  0
    0.8777    1.6813   -2.2452 F   0  0  0  0  0  0  0  0  0  0  0  0
   -3.6135   -2.4599   -1.3507 H   0  0  0  0  0  0  0  0  0  0  0  0
   -3.6450   -1.1009   -2.4629 H   0  0  0  0  0  0  0  0  0  0  0  0
   -2.3503   -2.3109   -2.5930 H   0  0  0  0  0  0  0  0  0  0  0  0
   -0.2346   -1.5818   -1.7110 H   0  0  0  0  0  0  0  0  0  0  0  0
    0.0465    1.1578    1.5956 H   0  0  0  0  0  0  0  0  0  0  0  0
   -5.6726    1.6118    2.3469 H   0  0  0  0  0  0  0  0  0  0  0  0
    5.6972   -0.9538    0.8362 H   0  0  0  0  0  0  0  0  0  0  0  0
    5.0852   -1.8546    3.1118 H   0  0  0  0  0  0  0  0  0  0  0  0
  1  2  1  0
  1 29  1  0
  1 30  1  0
  1 31  1  0
  2  3  2  0
  2  7  1  0
  3  4  1  0
  3 32  1  0
  4  5  2  0
  4 12  1  0
  5  6  1  0
  5 33  1  0
  6  7  2  0
  6 11  1  0
  7  8  1  0
  8  9  2  0
  9 10  1  0
  9 11  1  0
 10 34  1  0
 12 13  1  0
 12 24  1  0
 13 14  1  0
 13 18  2  0
 14 15  2  0
 14 23  1  0
 15 16  1  0
 15 35  1  0
 16 17  2  0
 16 36  1  0
 17 18  1  0
 17 19  1  0
 19 20  1  0
 19 21  1  0
 19 22  1  0
 23 24  2  0
 24 25  1  0
 25 26  1  0
 25 27  1  0
 25 28  1  0
M  END
>  <group_name>  (1) 
JNS

>  <molecule_index>  (1) 
01548

>  <conformer_index>  (1) 
04

>  <method>  (1) 
b3lyp-d3bj

>  <basis>  (1) 
dzvp

>  <program>  (1) 
psi4

>  <initial_energy>  (1) 
-1196144.2432440012 kilocalorie / mole

>  <final_energy>  (1) 
-1196228.8582793039 kilocalorie / mole

$$$$
