JNS-02392-08
     RDKit          3D

 48 51  0  0  0  0  0  0  0  0999 V2000
   -1.6042    2.1124   -1.8377 C   0  0  0  0  0  0  0  0  0  0  0  0
   -1.4701    0.9762   -0.8590 C   0  0  0  0  0  0  0  0  0  0  0  0
   -2.5211    0.5898   -0.0162 C   0  0  0  0  0  0  0  0  0  0  0  0
   -2.2992   -0.4858    0.8526 C   0  0  0  0  0  0  0  0  0  0  0  0
   -3.3638   -0.9865    1.7927 C   0  0  0  0  0  0  0  0  0  0  0  0
   -1.1220   -1.1274    0.8862 N   0  0  0  0  0  0  0  0  0  0  0  0
   -0.1745   -0.6710    0.0448 C   0  0  0  0  0  0  0  0  0  0  0  0
   -0.2884    0.3463   -0.8322 N   0  0  0  0  0  0  0  0  0  0  0  0
    1.0425   -1.2918    0.0894 N   0  0  0  0  0  0  0  0  0  0  0  0
    1.3229   -2.6598    0.5541 C   0  0  0  0  0  0  0  0  0  0  0  0
    2.5559   -2.6780   -0.3935 C   0  0  2  0  0  0  0  0  0  0  0  0
    3.9124   -2.4608    0.2709 C   0  0  0  0  0  0  0  0  0  0  0  0
    4.9267   -1.8893   -0.7332 C   0  0  0  0  0  0  0  0  0  0  0  0
    4.3258   -0.8049   -1.5354 N   0  0  0  0  0  0  0  0  0  0  0  0
    3.0654   -0.2293   -1.0508 C   0  0  0  0  0  0  0  0  0  0  0  0
    2.0212   -1.3470   -1.0050 C   0  0  2  0  0  0  0  0  0  0  0  0
    4.7268   -0.5262   -2.8085 C   0  0  0  0  0  0  0  0  0  0  0  0
    4.1570    0.2607   -3.5641 O   0  0  0  0  0  0  0  0  0  0  0  0
    6.0085   -1.1824   -3.2735 C   0  0  0  0  0  0  0  0  0  0  0  0
    7.2318   -0.6344   -2.8710 C   0  0  0  0  0  0  0  0  0  0  0  0
    8.4178   -1.1403   -3.3981 C   0  0  0  0  0  0  0  0  0  0  0  0
    8.3418   -2.1896   -4.3190 C   0  0  0  0  0  0  0  0  0  0  0  0
    7.1842   -2.7358   -4.7037 N   0  0  0  0  0  0  0  0  0  0  0  0
    6.0548   -2.2435   -4.1898 C   0  0  0  0  0  0  0  0  0  0  0  0
    4.7839   -2.9224   -4.6893 C   0  0  0  0  0  0  0  0  0  0  0  0
    4.9949   -4.2123   -5.0054 F   0  0  0  0  0  0  0  0  0  0  0  0
    3.8077   -2.9036   -3.7359 F   0  0  0  0  0  0  0  0  0  0  0  0
    4.2851   -2.3072   -5.7820 F   0  0  0  0  0  0  0  0  0  0  0  0
   -2.6051    2.5504   -1.8177 H   0  0  0  0  0  0  0  0  0  0  0  0
   -1.3885    1.7595   -2.8509 H   0  0  0  0  0  0  0  0  0  0  0  0
   -0.8708    2.8918   -1.6068 H   0  0  0  0  0  0  0  0  0  0  0  0
   -3.4767    1.1033   -0.0406 H   0  0  0  0  0  0  0  0  0  0  0  0
   -3.5665   -2.0444    1.5980 H   0  0  0  0  0  0  0  0  0  0  0  0
   -3.0135   -0.9108    2.8272 H   0  0  0  0  0  0  0  0  0  0  0  0
   -4.2939   -0.4221    1.6912 H   0  0  0  0  0  0  0  0  0  0  0  0
    0.5324   -3.3705    0.2877 H   0  0  0  0  0  0  0  0  0  0  0  0
    1.5242   -2.7370    1.6275 H   0  0  0  0  0  0  0  0  0  0  0  0
    2.5872   -3.5135   -1.0957 H   0  0  0  0  0  0  0  0  0  0  0  0
    4.3132   -3.3949    0.6781 H   0  0  0  0  0  0  0  0  0  0  0  0
    3.7979   -1.7743    1.1167 H   0  0  0  0  0  0  0  0  0  0  0  0
    5.8133   -1.5233   -0.2000 H   0  0  0  0  0  0  0  0  0  0  0  0
    5.2556   -2.6861   -1.4037 H   0  0  0  0  0  0  0  0  0  0  0  0
    3.2115    0.1921   -0.0514 H   0  0  0  0  0  0  0  0  0  0  0  0
    2.7700    0.5711   -1.7254 H   0  0  0  0  0  0  0  0  0  0  0  0
    1.5526   -1.4662   -1.9875 H   0  0  0  0  0  0  0  0  0  0  0  0
    7.2439    0.1884   -2.1609 H   0  0  0  0  0  0  0  0  0  0  0  0
    9.3815   -0.7312   -3.1095 H   0  0  0  0  0  0  0  0  0  0  0  0
    9.2422   -2.6099   -4.7628 H   0  0  0  0  0  0  0  0  0  0  0  0
  1  2  1  0
  1 29  1  0
  1 30  1  0
  1 31  1  0
  2  3  2  0
  2  8  1  0
  3  4  1  0
  3 32  1  0
  4  5  1  0
  4  6  2  0
  5 33  1  0
  5 34  1  0
  5 35  1  0
  6  7  1  0
  7  8  2  0
  7  9  1  0
  9 10  1  0
  9 16  1  0
 10 11  1  0
 10 36  1  0
 10 37  1  0
 11 12  1  0
 11 16  1  0
 11 38  1  6
 12 13  1  0
 12 39  1  0
 12 40  1  0
 13 14  1  0
 13 41  1  0
 13 42  1  0
 14 15  1  0
 14 17  1  0
 15 16  1  0
 15 43  1  0
 15 44  1  0
 16 45  1  6
 17 18  2  0
 17 19  1  0
 19 20  2  0
 19 24  1  0
 20 21  1  0
 20 46  1  0
 21 22  2  0
 21 47  1  0
 22 23  1  0
 22 48  1  0
 23 24  2  0
 24 25  1  0
 25 26  1  0
 25 27  1  0
 25 28  1  0
M  END
>  <group_name>  (1) 
JNS

>  <molecule_index>  (1) 
02392

>  <conformer_index>  (1) 
08

>  <method>  (1) 
b3lyp-d3bj

>  <basis>  (1) 
dzvp

>  <program>  (1) 
psi4

>  <initial_energy>  (1) 
-868974.0377298907 kilocalorie / mole

>  <final_energy>  (1) 
-869017.4349925087 kilocalorie / mole

$$$$
