JNS-01586-04
     RDKit          3D

 40 44  0  0  0  0  0  0  0  0999 V2000
   -0.4464   -0.6957    1.2631 F   0  0  0  0  0  0  0  0  0  0  0  0
    0.0820   -0.0277    0.2288 C   0  0  0  0  0  0  0  0  0  0  0  0
   -0.4225   -0.5685   -0.9150 F   0  0  0  0  0  0  0  0  0  0  0  0
   -0.3853    1.2520    0.2827 F   0  0  0  0  0  0  0  0  0  0  0  0
    1.5992   -0.0473    0.2141 C   0  0  0  0  0  0  0  0  0  0  0  0
    2.1996   -0.6401    1.2242 N   0  0  0  0  0  0  0  0  0  0  0  0
    3.5547   -0.6200    1.1798 C   0  0  0  0  0  0  0  0  0  0  0  0
    4.5017   -1.1655    2.0739 C   0  0  0  0  0  0  0  0  0  0  0  0
    5.7140   -0.8369    1.5251 N   0  0  0  0  0  0  0  0  0  0  0  0
    5.6422   -0.1567    0.3419 N   0  0  0  0  0  0  0  0  0  0  0  0
    4.3228   -0.0221    0.1274 C   0  0  0  0  0  0  0  0  0  0  0  0
    3.6367    0.6052   -0.9425 C   0  0  0  0  0  0  0  0  0  0  0  0
    2.2611    0.5866   -0.8859 C   0  0  0  0  0  0  0  0  0  0  0  0
    7.0144   -1.0587    2.0763 C   0  0  0  0  0  0  0  0  0  0  0  0
    8.0155   -1.5804    1.2539 C   0  0  0  0  0  0  0  0  0  0  0  0
    9.2887   -1.8005    1.7848 C   0  0  0  0  0  0  0  0  0  0  0  0
    9.5552   -1.5013    3.1252 C   0  0  0  0  0  0  0  0  0  0  0  0
    8.5464   -0.9658    3.9340 C   0  0  0  0  0  0  0  0  0  0  0  0
    7.2728   -0.7355    3.4115 C   0  0  0  0  0  0  0  0  0  0  0  0
    4.2837   -1.9818    3.2709 C   0  0  0  0  0  0  0  0  0  0  0  0
    3.1642   -1.6728    4.0997 C   0  0  0  0  0  0  0  0  0  0  0  0
    2.8743   -2.3979    5.2435 C   0  0  0  0  0  0  0  0  0  0  0  0
    3.7290   -3.4674    5.5623 C   0  0  0  0  0  0  0  0  0  0  0  0
    3.7398   -4.3688    6.5925 N   0  0  0  0  0  0  0  0  0  0  0  0
    4.7676   -5.2616    6.4972 N   0  0  0  0  0  0  0  0  0  0  0  0
    5.4306   -4.9382    5.3980 C   0  0  0  0  0  0  0  0  0  0  0  0
    4.8390   -3.8079    4.7441 C   0  0  0  0  0  0  0  0  0  0  0  0
    5.1105   -3.0622    3.5862 C   0  0  0  0  0  0  0  0  0  0  0  0
    4.1737    1.0758   -1.7609 H   0  0  0  0  0  0  0  0  0  0  0  0
    1.6649    1.0472   -1.6671 H   0  0  0  0  0  0  0  0  0  0  0  0
    7.7899   -1.8011    0.2159 H   0  0  0  0  0  0  0  0  0  0  0  0
   10.0711   -2.2082    1.1507 H   0  0  0  0  0  0  0  0  0  0  0  0
   10.5455   -1.6779    3.5361 H   0  0  0  0  0  0  0  0  0  0  0  0
    8.7513   -0.7194    4.9720 H   0  0  0  0  0  0  0  0  0  0  0  0
    6.4875   -0.3149    4.0304 H   0  0  0  0  0  0  0  0  0  0  0  0
    2.5191   -0.8499    3.8124 H   0  0  0  0  0  0  0  0  0  0  0  0
    2.0159   -2.1455    5.8596 H   0  0  0  0  0  0  0  0  0  0  0  0
    3.0955   -4.4484    7.3667 H   0  0  0  0  0  0  0  0  0  0  0  0
    6.3027   -5.5114    5.1082 H   0  0  0  0  0  0  0  0  0  0  0  0
    5.9450   -3.3309    2.9471 H   0  0  0  0  0  0  0  0  0  0  0  0
  1  2  1  0
  2  3  1  0
  2  4  1  0
  2  5  1  0
  5  6  2  0
  5 13  1  0
  6  7  1  0
  7  8  2  0
  7 11  1  0
  8  9  1  0
  8 20  1  0
  9 10  1  0
  9 14  1  0
 10 11  2  0
 11 12  1  0
 12 13  2  0
 12 29  1  0
 13 30  1  0
 14 15  2  0
 14 19  1  0
 15 16  1  0
 15 31  1  0
 16 17  2  0
 16 32  1  0
 17 18  1  0
 17 33  1  0
 18 19  2  0
 18 34  1  0
 19 35  1  0
 20 21  2  0
 20 28  1  0
 21 22  1  0
 21 36  1  0
 22 23  2  0
 22 37  1  0
 23 24  1  0
 23 27  1  0
 24 25  1  0
 24 38  1  0
 25 26  2  0
 26 27  1  0
 26 39  1  0
 27 28  2  0
 28 40  1  0
M  END
>  <group_name>  (1) 
JNS

>  <molecule_index>  (1) 
01586

>  <conformer_index>  (1) 
04

>  <method>  (1) 
b3lyp-d3bj

>  <basis>  (1) 
dzvp

>  <program>  (1) 
psi4

>  <initial_energy>  (1) 
-842626.0858546137 kilocalorie / mole

>  <final_energy>  (1) 
-842666.6371043611 kilocalorie / mole

$$$$
