JNS-02158-05
     RDKit          3D

 42 45  0  0  0  0  0  0  0  0999 V2000
   -2.1250    2.2861    1.4752 C   0  0  0  0  0  0  0  0  0  0  0  0
   -1.7264    1.8573    0.0562 C   0  0  2  0  0  0  0  0  0  0  0  0
   -0.2844    1.5322   -0.0463 N   0  0  0  0  0  0  0  0  0  0  0  0
    0.6351    2.6508   -0.2834 C   0  0  0  0  0  0  0  0  0  0  0  0
    0.3859    3.3300   -1.6419 C   0  0  0  0  0  0  0  0  0  0  0  0
   -1.0881    3.5356   -1.7576 C   0  0  0  0  0  0  0  0  0  0  0  0
   -2.0228    2.8992   -0.9812 C   0  0  0  0  0  0  0  0  0  0  0  0
   -3.2742    3.3526   -1.3144 N   0  0  0  0  0  0  0  0  0  0  0  0
   -3.1756    4.2374   -2.2582 N   0  0  0  0  0  0  0  0  0  0  0  0
   -1.8347    4.3713   -2.5531 N   0  0  0  0  0  0  0  0  0  0  0  0
   -1.4035    5.2336   -3.5842 C   0  0  0  0  0  0  0  0  0  0  0  0
   -0.1498    5.0442   -4.0079 N   0  0  0  0  0  0  0  0  0  0  0  0
    0.2730    5.8465   -4.9909 C   0  0  0  0  0  0  0  0  0  0  0  0
   -0.5727    6.8070   -5.5329 C   0  0  0  0  0  0  0  0  0  0  0  0
   -0.1528    7.6099   -6.5308 F   0  0  0  0  0  0  0  0  0  0  0  0
   -1.8617    6.9260   -5.0178 C   0  0  0  0  0  0  0  0  0  0  0  0
   -2.2798    6.1372   -4.0263 N   0  0  0  0  0  0  0  0  0  0  0  0
    0.0926    0.2626    0.2727 C   0  0  0  0  0  0  0  0  0  0  0  0
   -0.6918   -0.6007    0.6684 O   0  0  0  0  0  0  0  0  0  0  0  0
    1.5529   -0.1087    0.1402 C   0  0  0  0  0  0  0  0  0  0  0  0
    2.2367   -0.6363    1.2403 C   0  0  0  0  0  0  0  0  0  0  0  0
    3.5604   -1.0516    1.0888 C   0  0  0  0  0  0  0  0  0  0  0  0
    4.2212   -0.9876   -0.0743 N   0  0  0  0  0  0  0  0  0  0  0  0
    3.5738   -0.5108   -1.1355 C   0  0  0  0  0  0  0  0  0  0  0  0
    2.2493   -0.0713   -1.0639 C   0  0  0  0  0  0  0  0  0  0  0  0
    1.6417    0.3998   -2.1736 F   0  0  0  0  0  0  0  0  0  0  0  0
    4.3269   -0.4400   -2.4566 C   0  0  0  0  0  0  0  0  0  0  0  0
    3.7065   -1.1730   -3.4124 F   0  0  0  0  0  0  0  0  0  0  0  0
    4.3791    0.8422   -2.9089 F   0  0  0  0  0  0  0  0  0  0  0  0
    5.5837   -0.8846   -2.3457 F   0  0  0  0  0  0  0  0  0  0  0  0
   -1.9396    1.4689    2.1765 H   0  0  0  0  0  0  0  0  0  0  0  0
   -3.1894    2.5353    1.4947 H   0  0  0  0  0  0  0  0  0  0  0  0
   -1.5644    3.1710    1.7934 H   0  0  0  0  0  0  0  0  0  0  0  0
   -2.2646    0.9399   -0.1906 H   0  0  0  0  0  0  0  0  0  0  0  0
    0.4935    3.3877    0.5170 H   0  0  0  0  0  0  0  0  0  0  0  0
    1.6634    2.3007   -0.2145 H   0  0  0  0  0  0  0  0  0  0  0  0
    0.9295    4.2772   -1.6856 H   0  0  0  0  0  0  0  0  0  0  0  0
    0.7562    2.7112   -2.4628 H   0  0  0  0  0  0  0  0  0  0  0  0
    1.2908    5.7186   -5.3540 H   0  0  0  0  0  0  0  0  0  0  0  0
   -2.5557    7.6697   -5.4052 H   0  0  0  0  0  0  0  0  0  0  0  0
    1.7294   -0.7264    2.1958 H   0  0  0  0  0  0  0  0  0  0  0  0
    4.1145   -1.4552    1.9329 H   0  0  0  0  0  0  0  0  0  0  0  0
  1  2  1  0
  1 31  1  0
  1 32  1  0
  1 33  1  0
  2  3  1  0
  2  7  1  0
  2 34  1  6
  3  4  1  0
  3 18  1  0
  4  5  1  0
  4 35  1  0
  4 36  1  0
  5  6  1  0
  5 37  1  0
  5 38  1  0
  6  7  2  0
  6 10  1  0
  7  8  1  0
  8  9  2  0
  9 10  1  0
 10 11  1  0
 11 12  2  0
 11 17  1  0
 12 13  1  0
 13 14  2  0
 13 39  1  0
 14 15  1  0
 14 16  1  0
 16 17  2  0
 16 40  1  0
 18 19  2  0
 18 20  1  0
 20 21  2  0
 20 25  1  0
 21 22  1  0
 21 41  1  0
 22 23  2  0
 22 42  1  0
 23 24  1  0
 24 25  2  0
 24 27  1  0
 25 26  1  0
 27 28  1  0
 27 29  1  0
 27 30  1  0
M  END
>  <group_name>  (1) 
JNS

>  <molecule_index>  (1) 
02158

>  <conformer_index>  (1) 
05

>  <method>  (1) 
b3lyp-d3bj

>  <basis>  (1) 
dzvp

>  <program>  (1) 
psi4

>  <initial_energy>  (1) 
-1012131.2530259613 kilocalorie / mole

>  <final_energy>  (1) 
-1012182.9819081402 kilocalorie / mole

$$$$
