JNS-01589-03
     RDKit          3D

 43 47  0  0  0  0  0  0  0  0999 V2000
   -2.7902   -2.0202    1.6938 C   0  0  0  0  0  0  0  0  0  0  0  0
   -1.9820   -1.0249    0.9065 C   0  0  0  0  0  0  0  0  0  0  0  0
   -2.6313   -0.0235    0.1245 C   0  0  0  0  0  0  0  0  0  0  0  0
   -3.9615    0.1611   -0.0282 N   0  0  0  0  0  0  0  0  0  0  0  0
   -4.0358    1.2419   -0.8362 N   0  0  0  0  0  0  0  0  0  0  0  0
   -2.8425    1.7642   -1.2126 C   0  0  0  0  0  0  0  0  0  0  0  0
   -1.8725    0.9583   -0.6011 C   0  0  0  0  0  0  0  0  0  0  0  0
   -0.4572    0.9433   -0.5784 C   0  0  0  0  0  0  0  0  0  0  0  0
    0.1705   -0.0478    0.1574 C   0  0  0  0  0  0  0  0  0  0  0  0
   -0.6055   -1.0042    0.9031 C   0  0  0  0  0  0  0  0  0  0  0  0
    1.6339   -0.0592    0.2194 C   0  0  0  0  0  0  0  0  0  0  0  0
    2.5284    1.0326    0.3255 C   0  0  0  0  0  0  0  0  0  0  0  0
    2.2846    2.3606    0.3697 N   0  0  0  0  0  0  0  0  0  0  0  0
    3.3548    3.1270    0.4777 C   0  0  0  0  0  0  0  0  0  0  0  0
    4.6996    2.6559    0.5506 C   0  0  0  0  0  0  0  0  0  0  0  0
    4.9550    1.2991    0.5091 C   0  0  0  0  0  0  0  0  0  0  0  0
    3.8348    0.4448    0.3901 C   0  0  0  0  0  0  0  0  0  0  0  0
    3.7710   -0.8981    0.3126 N   0  0  0  0  0  0  0  0  0  0  0  0
    2.4401   -1.1607    0.2057 N   0  0  0  0  0  0  0  0  0  0  0  0
    2.0414   -2.5564    0.0203 C   0  0  0  0  0  0  0  0  0  0  0  0
    1.0605   -2.8996   -1.1311 C   0  0  0  0  0  0  0  0  0  0  0  0
    1.9195   -4.1661   -1.4042 C   0  0  0  0  0  0  0  0  0  0  0  0
    3.0844   -3.5010   -0.6182 C   0  0  0  0  0  0  0  0  0  0  0  0
    3.0626    4.6162    0.5001 C   0  0  0  0  0  0  0  0  0  0  0  0
    2.1794    4.9484    1.4671 F   0  0  0  0  0  0  0  0  0  0  0  0
    2.5393    5.0391   -0.6788 F   0  0  0  0  0  0  0  0  0  0  0  0
    4.1875    5.3476    0.7162 F   0  0  0  0  0  0  0  0  0  0  0  0
   -2.1434   -2.7092    2.2437 H   0  0  0  0  0  0  0  0  0  0  0  0
   -3.4454   -1.5107    2.4085 H   0  0  0  0  0  0  0  0  0  0  0  0
   -3.4406   -2.6031    1.0326 H   0  0  0  0  0  0  0  0  0  0  0  0
   -4.9531    1.5827   -1.0963 H   0  0  0  0  0  0  0  0  0  0  0  0
   -2.7708    2.6325   -1.8529 H   0  0  0  0  0  0  0  0  0  0  0  0
    0.1250    1.6864   -1.1125 H   0  0  0  0  0  0  0  0  0  0  0  0
   -0.0786   -1.7266    1.5193 H   0  0  0  0  0  0  0  0  0  0  0  0
    5.5094    3.3709    0.6394 H   0  0  0  0  0  0  0  0  0  0  0  0
    5.9657    0.9045    0.5627 H   0  0  0  0  0  0  0  0  0  0  0  0
    1.6902   -2.9537    0.9769 H   0  0  0  0  0  0  0  0  0  0  0  0
    1.1428   -2.1677   -1.9391 H   0  0  0  0  0  0  0  0  0  0  0  0
    0.0083   -3.0263   -0.8725 H   0  0  0  0  0  0  0  0  0  0  0  0
    2.1085   -4.4224   -2.4491 H   0  0  0  0  0  0  0  0  0  0  0  0
    1.5220   -5.0469   -0.8918 H   0  0  0  0  0  0  0  0  0  0  0  0
    3.6787   -4.1131    0.0629 H   0  0  0  0  0  0  0  0  0  0  0  0
    3.7563   -2.9450   -1.2737 H   0  0  0  0  0  0  0  0  0  0  0  0
  1  2  1  0
  1 28  1  0
  1 29  1  0
  1 30  1  0
  2  3  1  0
  2 10  2  0
  3  4  2  0
  3  7  1  0
  4  5  1  0
  5  6  1  0
  5 31  1  0
  6  7  2  0
  6 32  1  0
  7  8  1  0
  8  9  2  0
  8 33  1  0
  9 10  1  0
  9 11  1  0
 10 34  1  0
 11 12  2  0
 11 19  1  0
 12 13  1  0
 12 17  1  0
 13 14  2  0
 14 15  1  0
 14 24  1  0
 15 16  2  0
 15 35  1  0
 16 17  1  0
 16 36  1  0
 17 18  2  0
 18 19  1  0
 19 20  1  0
 20 21  1  0
 20 23  1  0
 20 37  1  0
 21 22  1  0
 21 38  1  0
 21 39  1  0
 22 23  1  0
 22 40  1  0
 22 41  1  0
 23 42  1  0
 23 43  1  0
 24 25  1  0
 24 26  1  0
 24 27  1  0
M  END
>  <group_name>  (1) 
JNS

>  <molecule_index>  (1) 
01589

>  <conformer_index>  (1) 
03

>  <method>  (1) 
b3lyp-d3bj

>  <basis>  (1) 
dzvp

>  <program>  (1) 
psi4

>  <initial_energy>  (1) 
-820189.484126611 kilocalorie / mole

>  <final_energy>  (1) 
-820251.5085635006 kilocalorie / mole

$$$$
