JNS-01558-08
     RDKit          3D

 42 46  0  0  0  0  0  0  0  0999 V2000
   -0.3985   -0.4372   -1.1544 F   0  0  0  0  0  0  0  0  0  0  0  0
    0.1010   -0.3788    0.1095 C   0  0  0  0  0  0  0  0  0  0  0  0
   -0.4368    0.7298    0.6868 F   0  0  0  0  0  0  0  0  0  0  0  0
   -0.3655   -1.4467    0.7792 F   0  0  0  0  0  0  0  0  0  0  0  0
    1.6173   -0.3097    0.0980 C   0  0  0  0  0  0  0  0  0  0  0  0
    2.2264   -0.8666    1.1253 N   0  0  0  0  0  0  0  0  0  0  0  0
    3.5764   -0.7650    1.1191 C   0  0  0  0  0  0  0  0  0  0  0  0
    4.5263   -1.2309    2.0552 C   0  0  0  0  0  0  0  0  0  0  0  0
    5.7328   -0.8434    1.5337 N   0  0  0  0  0  0  0  0  0  0  0  0
    5.6535   -0.1431    0.3620 N   0  0  0  0  0  0  0  0  0  0  0  0
    4.3353   -0.0930    0.1053 C   0  0  0  0  0  0  0  0  0  0  0  0
    3.6420    0.4977   -0.9797 C   0  0  0  0  0  0  0  0  0  0  0  0
    2.2688    0.3794   -0.9726 C   0  0  0  0  0  0  0  0  0  0  0  0
    7.0390   -1.1483    2.0272 C   0  0  0  0  0  0  0  0  0  0  0  0
    7.9878   -0.1258    2.1022 C   0  0  0  0  0  0  0  0  0  0  0  0
    9.2683   -0.4171    2.5782 C   0  0  0  0  0  0  0  0  0  0  0  0
    9.5944   -1.7189    2.9740 C   0  0  0  0  0  0  0  0  0  0  0  0
    8.6381   -2.7363    2.8806 C   0  0  0  0  0  0  0  0  0  0  0  0
    7.3574   -2.4571    2.4007 C   0  0  0  0  0  0  0  0  0  0  0  0
    4.2985   -1.8958    3.3387 C   0  0  0  0  0  0  0  0  0  0  0  0
    5.0767   -1.6117    4.4758 C   0  0  0  0  0  0  0  0  0  0  0  0
    4.8258   -2.2270    5.7061 C   0  0  0  0  0  0  0  0  0  0  0  0
    3.7686   -3.1306    5.7798 C   0  0  0  0  0  0  0  0  0  0  0  0
    3.3113   -3.8704    6.8765 N   0  0  0  0  0  0  0  0  0  0  0  0
    2.2102   -4.6621    6.5621 C   0  0  0  0  0  0  0  0  0  0  0  0
    1.6271   -5.3998    7.3371 O   0  0  0  0  0  0  0  0  0  0  0  0
    1.9065   -4.4098    5.0771 C   0  0  0  0  0  0  0  0  0  0  0  0
    2.9635   -3.4172    4.6606 C   0  0  0  0  0  0  0  0  0  0  0  0
    3.2186   -2.8033    3.4476 C   0  0  0  0  0  0  0  0  0  0  0  0
    4.1709    1.0124   -1.7765 H   0  0  0  0  0  0  0  0  0  0  0  0
    1.6706    0.7978   -1.7748 H   0  0  0  0  0  0  0  0  0  0  0  0
    7.7170    0.8753    1.7839 H   0  0  0  0  0  0  0  0  0  0  0  0
   10.0101    0.3742    2.6407 H   0  0  0  0  0  0  0  0  0  0  0  0
   10.5908   -1.9412    3.3460 H   0  0  0  0  0  0  0  0  0  0  0  0
    8.8904   -3.7519    3.1725 H   0  0  0  0  0  0  0  0  0  0  0  0
    6.6131   -3.2417    2.3176 H   0  0  0  0  0  0  0  0  0  0  0  0
    5.8835   -0.8899    4.4102 H   0  0  0  0  0  0  0  0  0  0  0  0
    5.4353   -1.9915    6.5742 H   0  0  0  0  0  0  0  0  0  0  0  0
    3.7061   -3.8510    7.8088 H   0  0  0  0  0  0  0  0  0  0  0  0
    1.9522   -5.3580    4.5324 H   0  0  0  0  0  0  0  0  0  0  0  0
    0.8864   -4.0260    4.9768 H   0  0  0  0  0  0  0  0  0  0  0  0
    2.5949   -3.0015    2.5821 H   0  0  0  0  0  0  0  0  0  0  0  0
  1  2  1  0
  2  3  1  0
  2  4  1  0
  2  5  1  0
  5  6  2  0
  5 13  1  0
  6  7  1  0
  7  8  2  0
  7 11  1  0
  8  9  1  0
  8 20  1  0
  9 10  1  0
  9 14  1  0
 10 11  2  0
 11 12  1  0
 12 13  2  0
 12 30  1  0
 13 31  1  0
 14 15  2  0
 14 19  1  0
 15 16  1  0
 15 32  1  0
 16 17  2  0
 16 33  1  0
 17 18  1  0
 17 34  1  0
 18 19  2  0
 18 35  1  0
 19 36  1  0
 20 21  2  0
 20 29  1  0
 21 22  1  0
 21 37  1  0
 22 23  2  0
 22 38  1  0
 23 24  1  0
 23 28  1  0
 24 25  1  0
 24 39  1  0
 25 26  2  0
 25 27  1  0
 27 28  1  0
 27 40  1  0
 27 41  1  0
 28 29  2  0
 29 42  1  0
M  END
>  <group_name>  (1) 
JNS

>  <molecule_index>  (1) 
01558

>  <conformer_index>  (1) 
08

>  <method>  (1) 
b3lyp-d3bj

>  <basis>  (1) 
dzvp

>  <program>  (1) 
psi4

>  <initial_energy>  (1) 
-879797.1232090382 kilocalorie / mole

>  <final_energy>  (1) 
-879837.520114424 kilocalorie / mole

$$$$
