JNS-01586-02
     RDKit          3D

 40 44  0  0  0  0  0  0  0  0999 V2000
   -0.4284    0.5861    0.0788 F   0  0  0  0  0  0  0  0  0  0  0  0
    0.1788   -0.6335    0.1249 C   0  0  0  0  0  0  0  0  0  0  0  0
   -0.2949   -1.2825    1.1968 F   0  0  0  0  0  0  0  0  0  0  0  0
   -0.2366   -1.3065   -0.9842 F   0  0  0  0  0  0  0  0  0  0  0  0
    1.6886   -0.4841    0.1341 C   0  0  0  0  0  0  0  0  0  0  0  0
    2.3351   -1.0118    1.1518 N   0  0  0  0  0  0  0  0  0  0  0  0
    3.6803   -0.8491    1.1245 C   0  0  0  0  0  0  0  0  0  0  0  0
    4.6657   -1.2911    2.0335 C   0  0  0  0  0  0  0  0  0  0  0  0
    5.8448   -0.8380    1.5019 N   0  0  0  0  0  0  0  0  0  0  0  0
    5.7192   -0.1694    0.3157 N   0  0  0  0  0  0  0  0  0  0  0  0
    4.3963   -0.1745    0.0818 C   0  0  0  0  0  0  0  0  0  0  0  0
    3.6619    0.3770   -0.9981 C   0  0  0  0  0  0  0  0  0  0  0  0
    2.2950    0.2155   -0.9581 C   0  0  0  0  0  0  0  0  0  0  0  0
    7.1508   -0.9160    2.0759 C   0  0  0  0  0  0  0  0  0  0  0  0
    7.3429   -0.6003    3.4242 C   0  0  0  0  0  0  0  0  0  0  0  0
    8.6261   -0.6833    3.9674 C   0  0  0  0  0  0  0  0  0  0  0  0
    9.7085   -1.0658    3.1675 C   0  0  0  0  0  0  0  0  0  0  0  0
    9.5051   -1.3602    1.8147 C   0  0  0  0  0  0  0  0  0  0  0  0
    8.2247   -1.2863    1.2623 C   0  0  0  0  0  0  0  0  0  0  0  0
    4.5093   -2.1234    3.2288 C   0  0  0  0  0  0  0  0  0  0  0  0
    5.4468   -3.1543    3.5361 C   0  0  0  0  0  0  0  0  0  0  0  0
    5.2995   -3.9774    4.6392 C   0  0  0  0  0  0  0  0  0  0  0  0
    4.1737   -3.7654    5.4551 C   0  0  0  0  0  0  0  0  0  0  0  0
    3.7284   -4.3797    6.5940 N   0  0  0  0  0  0  0  0  0  0  0  0
    2.5548   -3.8514    7.0492 N   0  0  0  0  0  0  0  0  0  0  0  0
    2.2375   -2.8848    6.2021 C   0  0  0  0  0  0  0  0  0  0  0  0
    3.2135   -2.7621    5.1595 C   0  0  0  0  0  0  0  0  0  0  0  0
    3.3835   -1.9389    4.0341 C   0  0  0  0  0  0  0  0  0  0  0  0
    4.1567    0.9011   -1.8105 H   0  0  0  0  0  0  0  0  0  0  0  0
    1.6637    0.6128   -1.7466 H   0  0  0  0  0  0  0  0  0  0  0  0
    6.5011   -0.2952    4.0364 H   0  0  0  0  0  0  0  0  0  0  0  0
    8.7797   -0.4394    5.0149 H   0  0  0  0  0  0  0  0  0  0  0  0
   10.7060   -1.1268    3.5941 H   0  0  0  0  0  0  0  0  0  0  0  0
   10.3436   -1.6497    1.1873 H   0  0  0  0  0  0  0  0  0  0  0  0
    8.0472   -1.5038    0.2144 H   0  0  0  0  0  0  0  0  0  0  0  0
    6.2948   -3.3110    2.8781 H   0  0  0  0  0  0  0  0  0  0  0  0
    6.0225   -4.7603    4.8500 H   0  0  0  0  0  0  0  0  0  0  0  0
    4.1431   -5.1506    7.0984 H   0  0  0  0  0  0  0  0  0  0  0  0
    1.3315   -2.3115    6.3549 H   0  0  0  0  0  0  0  0  0  0  0  0
    2.6528   -1.1771    3.7838 H   0  0  0  0  0  0  0  0  0  0  0  0
  1  2  1  0
  2  3  1  0
  2  4  1  0
  2  5  1  0
  5  6  2  0
  5 13  1  0
  6  7  1  0
  7  8  2  0
  7 11  1  0
  8  9  1  0
  8 20  1  0
  9 10  1  0
  9 14  1  0
 10 11  2  0
 11 12  1  0
 12 13  2  0
 12 29  1  0
 13 30  1  0
 14 15  2  0
 14 19  1  0
 15 16  1  0
 15 31  1  0
 16 17  2  0
 16 32  1  0
 17 18  1  0
 17 33  1  0
 18 19  2  0
 18 34  1  0
 19 35  1  0
 20 21  2  0
 20 28  1  0
 21 22  1  0
 21 36  1  0
 22 23  2  0
 22 37  1  0
 23 24  1  0
 23 27  1  0
 24 25  1  0
 24 38  1  0
 25 26  2  0
 26 27  1  0
 26 39  1  0
 27 28  2  0
 28 40  1  0
M  END
>  <group_name>  (1) 
JNS

>  <molecule_index>  (1) 
01586

>  <conformer_index>  (1) 
02

>  <method>  (1) 
b3lyp-d3bj

>  <basis>  (1) 
dzvp

>  <program>  (1) 
psi4

>  <initial_energy>  (1) 
-842623.105456021 kilocalorie / mole

>  <final_energy>  (1) 
-842666.5967414123 kilocalorie / mole

$$$$
