JNS-01614-09
     RDKit          3D

 39 42  0  0  0  0  0  0  0  0999 V2000
   -0.7195   -0.2981    0.4038 C   0  0  0  0  0  0  0  0  0  0  0  0
    0.0363    0.6692   -0.5274 C   0  0  0  0  0  0  0  0  0  0  0  0
    1.5200    0.4933   -0.4529 C   0  0  0  0  0  0  0  0  0  0  0  0
    2.3380    1.3411    0.1436 N   0  0  0  0  0  0  0  0  0  0  0  0
    3.5945    0.7633    0.0630 C   0  0  0  0  0  0  0  0  0  0  0  0
    3.5149   -0.4851   -0.6112 C   0  0  0  0  0  0  0  0  0  0  0  0
    4.5101   -1.3201   -0.8627 N   0  0  0  0  0  0  0  0  0  0  0  0
    5.7032   -0.8988   -0.4156 C   0  0  0  0  0  0  0  0  0  0  0  0
    5.9244    0.3125    0.2600 C   0  0  0  0  0  0  0  0  0  0  0  0
    4.8495    1.1743    0.5106 C   0  0  0  0  0  0  0  0  0  0  0  0
    6.8440   -1.8557   -0.6945 C   0  0  0  0  0  0  0  0  0  0  0  0
    7.0146   -2.0650   -2.0208 F   0  0  0  0  0  0  0  0  0  0  0  0
    8.0232   -1.3892   -0.2090 F   0  0  0  0  0  0  0  0  0  0  0  0
    6.6323   -3.0678   -0.1260 F   0  0  0  0  0  0  0  0  0  0  0  0
    2.1738   -0.6371   -0.9439 N   0  0  0  0  0  0  0  0  0  0  0  0
    1.6085   -1.7515   -1.6372 C   0  0  0  0  0  0  0  0  0  0  0  0
    0.9933   -1.5637   -2.8636 C   0  0  0  0  0  0  0  0  0  0  0  0
    0.4278   -2.6923   -3.4884 C   0  0  0  0  0  0  0  0  0  0  0  0
    0.5305   -3.9629   -2.8672 C   0  0  0  0  0  0  0  0  0  0  0  0
   -0.0962   -4.8397   -3.7140 N   0  0  0  0  0  0  0  0  0  0  0  0
   -0.5879   -4.2291   -4.8284 N   0  0  0  0  0  0  0  0  0  0  0  0
   -0.2815   -2.9457   -4.7062 C   0  0  0  0  0  0  0  0  0  0  0  0
    1.1787   -4.1682   -1.6307 C   0  0  0  0  0  0  0  0  0  0  0  0
    1.2851   -5.5407   -1.0187 C   0  0  0  0  0  0  0  0  0  0  0  0
    1.7045   -3.0320   -1.0339 C   0  0  0  0  0  0  0  0  0  0  0  0
   -0.5523   -1.3400    0.1170 H   0  0  0  0  0  0  0  0  0  0  0  0
   -1.7950   -0.1021    0.3556 H   0  0  0  0  0  0  0  0  0  0  0  0
   -0.3933   -0.1692    1.4402 H   0  0  0  0  0  0  0  0  0  0  0  0
   -0.1659    1.7041   -0.2429 H   0  0  0  0  0  0  0  0  0  0  0  0
   -0.3135    0.5338   -1.5552 H   0  0  0  0  0  0  0  0  0  0  0  0
    6.9257    0.5700    0.5844 H   0  0  0  0  0  0  0  0  0  0  0  0
    4.9853    2.1175    1.0316 H   0  0  0  0  0  0  0  0  0  0  0  0
    0.9652   -0.5819   -3.3262 H   0  0  0  0  0  0  0  0  0  0  0  0
   -0.2126   -5.8382   -3.6148 H   0  0  0  0  0  0  0  0  0  0  0  0
   -0.5722   -2.2482   -5.4820 H   0  0  0  0  0  0  0  0  0  0  0  0
    1.8403   -6.2228   -1.6739 H   0  0  0  0  0  0  0  0  0  0  0  0
    0.2945   -5.9798   -0.8479 H   0  0  0  0  0  0  0  0  0  0  0  0
    1.8060   -5.5054   -0.0593 H   0  0  0  0  0  0  0  0  0  0  0  0
    2.2182   -3.1134   -0.0807 H   0  0  0  0  0  0  0  0  0  0  0  0
  1  2  1  0
  1 26  1  0
  1 27  1  0
  1 28  1  0
  2  3  1  0
  2 29  1  0
  2 30  1  0
  3  4  2  0
  3 15  1  0
  4  5  1  0
  5  6  2  0
  5 10  1  0
  6  7  1  0
  6 15  1  0
  7  8  2  0
  8  9  1  0
  8 11  1  0
  9 10  2  0
  9 31  1  0
 10 32  1  0
 11 12  1  0
 11 13  1  0
 11 14  1  0
 15 16  1  0
 16 17  2  0
 16 25  1  0
 17 18  1  0
 17 33  1  0
 18 19  2  0
 18 22  1  0
 19 20  1  0
 19 23  1  0
 20 21  1  0
 20 34  1  0
 21 22  2  0
 22 35  1  0
 23 24  1  0
 23 25  2  0
 24 36  1  0
 24 37  1  0
 24 38  1  0
 25 39  1  0
M  END
>  <group_name>  (1) 
JNS

>  <molecule_index>  (1) 
01614

>  <conformer_index>  (1) 
09

>  <method>  (1) 
b3lyp-d3bj

>  <basis>  (1) 
dzvp

>  <program>  (1) 
psi4

>  <initial_energy>  (1) 
-771641.1329134973 kilocalorie / mole

>  <final_energy>  (1) 
-771705.733371958 kilocalorie / mole

$$$$
