JNS-01614-00
     RDKit          3D

 39 42  0  0  0  0  0  0  0  0999 V2000
   -0.6161    0.4559   -0.4670 C   0  0  0  0  0  0  0  0  0  0  0  0
    0.1326   -0.2258    0.6947 C   0  0  0  0  0  0  0  0  0  0  0  0
    1.6156   -0.2199    0.4999 C   0  0  0  0  0  0  0  0  0  0  0  0
    2.4483    0.5763    1.1450 N   0  0  0  0  0  0  0  0  0  0  0  0
    3.6992    0.3152    0.6098 C   0  0  0  0  0  0  0  0  0  0  0  0
    3.6005   -0.6807   -0.3997 C   0  0  0  0  0  0  0  0  0  0  0  0
    4.5864   -1.1764   -1.1292 N   0  0  0  0  0  0  0  0  0  0  0  0
    5.7900   -0.6535   -0.8493 C   0  0  0  0  0  0  0  0  0  0  0  0
    6.0299    0.3322    0.1222 C   0  0  0  0  0  0  0  0  0  0  0  0
    4.9645    0.8366    0.8777 C   0  0  0  0  0  0  0  0  0  0  0  0
    6.9215   -1.2160   -1.6850 C   0  0  0  0  0  0  0  0  0  0  0  0
    7.0640   -2.5507   -1.5074 F   0  0  0  0  0  0  0  0  0  0  0  0
    8.1121   -0.6428   -1.3714 F   0  0  0  0  0  0  0  0  0  0  0  0
    6.7183   -1.0112   -3.0085 F   0  0  0  0  0  0  0  0  0  0  0  0
    2.2522   -1.0159   -0.4515 N   0  0  0  0  0  0  0  0  0  0  0  0
    1.6658   -2.0000   -1.3063 C   0  0  0  0  0  0  0  0  0  0  0  0
    1.6851   -1.8098   -2.6782 C   0  0  0  0  0  0  0  0  0  0  0  0
    1.1031   -2.8082   -3.4807 C   0  0  0  0  0  0  0  0  0  0  0  0
    0.5200   -3.9497   -2.8728 C   0  0  0  0  0  0  0  0  0  0  0  0
    0.0392   -4.7129   -3.9048 N   0  0  0  0  0  0  0  0  0  0  0  0
    0.2738   -4.1499   -5.1240 N   0  0  0  0  0  0  0  0  0  0  0  0
    0.9076   -3.0118   -4.8849 C   0  0  0  0  0  0  0  0  0  0  0  0
    0.5061   -4.1584   -1.4781 C   0  0  0  0  0  0  0  0  0  0  0  0
   -0.1003   -5.3989   -0.8751 C   0  0  0  0  0  0  0  0  0  0  0  0
    1.1008   -3.1600   -0.7183 C   0  0  0  0  0  0  0  0  0  0  0  0
   -1.6913    0.4719   -0.2635 H   0  0  0  0  0  0  0  0  0  0  0  0
   -0.2752    1.4880   -0.5917 H   0  0  0  0  0  0  0  0  0  0  0  0
   -0.4575   -0.0758   -1.4092 H   0  0  0  0  0  0  0  0  0  0  0  0
   -0.2308   -1.2517    0.8104 H   0  0  0  0  0  0  0  0  0  0  0  0
   -0.0604    0.3025    1.6310 H   0  0  0  0  0  0  0  0  0  0  0  0
    7.0385    0.6964    0.2782 H   0  0  0  0  0  0  0  0  0  0  0  0
    5.1147    1.5997    1.6358 H   0  0  0  0  0  0  0  0  0  0  0  0
    2.1412   -0.9226   -3.1057 H   0  0  0  0  0  0  0  0  0  0  0  0
   -0.4254   -5.6089   -3.8646 H   0  0  0  0  0  0  0  0  0  0  0  0
    1.2053   -2.3781   -5.7110 H   0  0  0  0  0  0  0  0  0  0  0  0
   -0.0114   -5.3936    0.2138 H   0  0  0  0  0  0  0  0  0  0  0  0
   -1.1656   -5.4827   -1.1231 H   0  0  0  0  0  0  0  0  0  0  0  0
    0.3959   -6.3041   -1.2456 H   0  0  0  0  0  0  0  0  0  0  0  0
    1.1547   -3.2695    0.3616 H   0  0  0  0  0  0  0  0  0  0  0  0
  1  2  1  0
  1 26  1  0
  1 27  1  0
  1 28  1  0
  2  3  1  0
  2 29  1  0
  2 30  1  0
  3  4  2  0
  3 15  1  0
  4  5  1  0
  5  6  2  0
  5 10  1  0
  6  7  1  0
  6 15  1  0
  7  8  2  0
  8  9  1  0
  8 11  1  0
  9 10  2  0
  9 31  1  0
 10 32  1  0
 11 12  1  0
 11 13  1  0
 11 14  1  0
 15 16  1  0
 16 17  2  0
 16 25  1  0
 17 18  1  0
 17 33  1  0
 18 19  2  0
 18 22  1  0
 19 20  1  0
 19 23  1  0
 20 21  1  0
 20 34  1  0
 21 22  2  0
 22 35  1  0
 23 24  1  0
 23 25  2  0
 24 36  1  0
 24 37  1  0
 24 38  1  0
 25 39  1  0
M  END
>  <group_name>  (1) 
JNS

>  <molecule_index>  (1) 
01614

>  <conformer_index>  (1) 
00

>  <method>  (1) 
b3lyp-d3bj

>  <basis>  (1) 
dzvp

>  <program>  (1) 
psi4

>  <initial_energy>  (1) 
-771657.2236911214 kilocalorie / mole

>  <final_energy>  (1) 
-771705.396935866 kilocalorie / mole

$$$$
