JNS-02536-07
     RDKit          3D

 44 47  0  0  0  0  0  0  0  0999 V2000
   -6.3723   -4.7067    0.2190 C   0  0  0  0  0  0  0  0  0  0  0  0
   -5.2450   -3.7114    0.0735 C   0  0  0  0  0  0  0  0  0  0  0  0
   -5.0216   -3.0587   -1.1491 C   0  0  0  0  0  0  0  0  0  0  0  0
   -3.9658   -2.1598   -1.3030 C   0  0  0  0  0  0  0  0  0  0  0  0
   -3.1168   -1.8963   -0.2251 C   0  0  0  0  0  0  0  0  0  0  0  0
   -3.3192   -2.5387    0.9979 C   0  0  0  0  0  0  0  0  0  0  0  0
   -4.3776   -3.4379    1.1412 C   0  0  0  0  0  0  0  0  0  0  0  0
   -2.0536   -0.9528   -0.3689 N   0  0  0  0  0  0  0  0  0  0  0  0
   -0.7693   -1.3079   -0.6469 C   0  0  0  0  0  0  0  0  0  0  0  0
   -0.1708   -2.8218   -0.9372 S   0  0  0  0  0  0  0  0  0  0  0  0
   -0.0211   -0.1106   -0.6354 N   0  0  0  0  0  0  0  0  0  0  0  0
   -0.8186    1.0072   -0.3532 C   0  0  0  0  0  0  0  0  0  0  0  0
   -0.4527    2.1636   -0.3367 O   0  0  0  0  0  0  0  0  0  0  0  0
   -2.2187    0.4746   -0.1120 C   0  0  0  0  0  0  0  0  0  0  0  0
   -2.8183    0.9609    1.2455 C   0  0  0  0  0  0  0  0  0  0  0  0
   -3.5713    2.0748    0.4689 C   0  0  0  0  0  0  0  0  0  0  0  0
   -3.3237    1.2880   -0.8470 C   0  0  0  0  0  0  0  0  0  0  0  0
    1.3882   -0.0376   -0.7773 C   0  0  0  0  0  0  0  0  0  0  0  0
    2.0424    0.4954    0.2525 N   0  0  0  0  0  0  0  0  0  0  0  0
    3.3612    0.6133    0.1726 C   0  0  0  0  0  0  0  0  0  0  0  0
    4.1030    0.1825   -0.9453 C   0  0  0  0  0  0  0  0  0  0  0  0
    3.3962   -0.3869   -2.0176 C   0  0  0  0  0  0  0  0  0  0  0  0
    2.0135   -0.4965   -1.9391 C   0  0  0  0  0  0  0  0  0  0  0  0
    5.5303    0.3038   -1.0291 C   0  0  0  0  0  0  0  0  0  0  0  0
    6.6864    0.3839   -1.1408 N   0  0  0  0  0  0  0  0  0  0  0  0
    4.0589    1.2356    1.3800 C   0  0  0  0  0  0  0  0  0  0  0  0
    3.1953    1.5722    2.3442 F   0  0  0  0  0  0  0  0  0  0  0  0
    4.9585    0.3698    1.9078 F   0  0  0  0  0  0  0  0  0  0  0  0
    4.7374    2.3501    1.0165 F   0  0  0  0  0  0  0  0  0  0  0  0
   -6.5912   -4.9135    1.2700 H   0  0  0  0  0  0  0  0  0  0  0  0
   -6.1133   -5.6585   -0.2595 H   0  0  0  0  0  0  0  0  0  0  0  0
   -7.2895   -4.3425   -0.2542 H   0  0  0  0  0  0  0  0  0  0  0  0
   -5.6778   -3.2605   -1.9927 H   0  0  0  0  0  0  0  0  0  0  0  0
   -3.7866   -1.6719   -2.2569 H   0  0  0  0  0  0  0  0  0  0  0  0
   -2.6404   -2.3441    1.8233 H   0  0  0  0  0  0  0  0  0  0  0  0
   -4.5271   -3.9365    2.0958 H   0  0  0  0  0  0  0  0  0  0  0  0
   -2.0985    1.2587    2.0112 H   0  0  0  0  0  0  0  0  0  0  0  0
   -3.4978    0.2063    1.6480 H   0  0  0  0  0  0  0  0  0  0  0  0
   -3.0259    3.0192    0.4844 H   0  0  0  0  0  0  0  0  0  0  0  0
   -4.6130    2.2457    0.7479 H   0  0  0  0  0  0  0  0  0  0  0  0
   -4.1650    0.6400   -1.1025 H   0  0  0  0  0  0  0  0  0  0  0  0
   -3.0024    1.8469   -1.7289 H   0  0  0  0  0  0  0  0  0  0  0  0
    3.9341   -0.7277   -2.8963 H   0  0  0  0  0  0  0  0  0  0  0  0
    1.4306   -0.9258   -2.7446 H   0  0  0  0  0  0  0  0  0  0  0  0
  1  2  1  0
  1 30  1  0
  1 31  1  0
  1 32  1  0
  2  3  2  0
  2  7  1  0
  3  4  1  0
  3 33  1  0
  4  5  2  0
  4 34  1  0
  5  6  1  0
  5  8  1  0
  6  7  2  0
  6 35  1  0
  7 36  1  0
  8  9  1  0
  8 14  1  0
  9 10  2  0
  9 11  1  0
 11 12  1  0
 11 18  1  0
 12 13  2  0
 12 14  1  0
 14 15  1  0
 14 17  1  0
 15 16  1  0
 15 37  1  0
 15 38  1  0
 16 17  1  0
 16 39  1  0
 16 40  1  0
 17 41  1  0
 17 42  1  0
 18 19  2  0
 18 23  1  0
 19 20  1  0
 20 21  2  0
 20 26  1  0
 21 22  1  0
 21 24  1  0
 22 23  2  0
 22 43  1  0
 23 44  1  0
 24 25  3  0
 26 27  1  0
 26 28  1  0
 26 29  1  0
M  END
>  <group_name>  (1) 
JNS

>  <molecule_index>  (1) 
02536

>  <conformer_index>  (1) 
07

>  <method>  (1) 
b3lyp-d3bj

>  <basis>  (1) 
dzvp

>  <program>  (1) 
psi4

>  <initial_energy>  (1) 
-1106474.8772455296 kilocalorie / mole

>  <final_energy>  (1) 
-1106514.9014747967 kilocalorie / mole

$$$$
