JNS-01948-09
     RDKit          3D

 33 34  0  0  0  0  0  0  0  0999 V2000
    0.2352    0.2226    1.7169 C   0  0  0  0  0  0  0  0  0  0  0  0
    0.6628   -0.6224    0.6331 O   0  0  0  0  0  0  0  0  0  0  0  0
    1.7761   -0.2409   -0.0329 C   0  0  0  0  0  0  0  0  0  0  0  0
    2.4181    0.8590    0.3362 N   0  0  0  0  0  0  0  0  0  0  0  0
    3.5081    1.1927   -0.3737 C   0  0  0  0  0  0  0  0  0  0  0  0
    4.0046    0.4621   -1.4395 C   0  0  0  0  0  0  0  0  0  0  0  0
    3.3315   -0.7222   -1.8158 C   0  0  0  0  0  0  0  0  0  0  0  0
    3.8435   -1.5973   -2.9353 C   0  0  0  0  0  0  0  0  0  0  0  0
    4.8620   -2.6880   -2.5066 C   0  0  2  0  0  0  0  0  0  0  0  0
    4.3933   -3.5950   -1.3383 C   0  0  0  0  0  0  0  0  0  0  0  0
    5.2661   -3.1449   -0.1498 C   0  0  0  0  0  0  0  0  0  0  0  0
    6.5698   -2.7783   -0.7304 N   0  0  0  0  0  0  0  0  0  0  0  0
    6.2290   -2.1158   -2.0032 C   0  0  0  0  0  0  0  0  0  0  0  0
    2.1879   -1.0613   -1.1035 C   0  0  0  0  0  0  0  0  0  0  0  0
    4.1866    2.4672    0.0909 C   0  0  0  0  0  0  0  0  0  0  0  0
    5.2493    2.7847   -0.6906 F   0  0  0  0  0  0  0  0  0  0  0  0
    3.3406    3.5226    0.0634 F   0  0  0  0  0  0  0  0  0  0  0  0
    4.6431    2.3526    1.3599 F   0  0  0  0  0  0  0  0  0  0  0  0
    0.0125    1.2304    1.3572 H   0  0  0  0  0  0  0  0  0  0  0  0
    1.0067    0.2829    2.4887 H   0  0  0  0  0  0  0  0  0  0  0  0
   -0.6642   -0.2525    2.1093 H   0  0  0  0  0  0  0  0  0  0  0  0
    4.8811    0.8040   -1.9761 H   0  0  0  0  0  0  0  0  0  0  0  0
    4.3142   -0.9677   -3.6991 H   0  0  0  0  0  0  0  0  0  0  0  0
    2.9923   -2.0917   -3.4150 H   0  0  0  0  0  0  0  0  0  0  0  0
    5.0316   -3.3005   -3.3980 H   0  0  0  0  0  0  0  0  0  0  0  0
    4.6060   -4.6442   -1.5718 H   0  0  0  0  0  0  0  0  0  0  0  0
    3.3223   -3.5198   -1.1338 H   0  0  0  0  0  0  0  0  0  0  0  0
    4.8341   -2.2567    0.3254 H   0  0  0  0  0  0  0  0  0  0  0  0
    5.3884   -3.9097    0.6222 H   0  0  0  0  0  0  0  0  0  0  0  0
    7.0739   -3.6388   -0.9393 H   0  0  0  0  0  0  0  0  0  0  0  0
    7.0327   -2.2557   -2.7317 H   0  0  0  0  0  0  0  0  0  0  0  0
    6.1479   -1.0412   -1.8172 H   0  0  0  0  0  0  0  0  0  0  0  0
    1.5957   -1.9364   -1.3509 H   0  0  0  0  0  0  0  0  0  0  0  0
  1  2  1  0
  1 19  1  0
  1 20  1  0
  1 21  1  0
  2  3  1  0
  3  4  2  0
  3 14  1  0
  4  5  1  0
  5  6  2  0
  5 15  1  0
  6  7  1  0
  6 22  1  0
  7  8  1  0
  7 14  2  0
  8  9  1  0
  8 23  1  0
  8 24  1  0
  9 10  1  0
  9 13  1  0
  9 25  1  6
 10 11  1  0
 10 26  1  0
 10 27  1  0
 11 12  1  0
 11 28  1  0
 11 29  1  0
 12 13  1  0
 12 30  1  0
 13 31  1  0
 13 32  1  0
 14 33  1  0
 15 16  1  0
 15 17  1  0
 15 18  1  0
M  END
>  <group_name>  (1) 
JNS

>  <molecule_index>  (1) 
01948

>  <conformer_index>  (1) 
09

>  <method>  (1) 
b3lyp-d3bj

>  <basis>  (1) 
dzvp

>  <program>  (1) 
psi4

>  <initial_energy>  (1) 
-596531.1752911587 kilocalorie / mole

>  <final_energy>  (1) 
-596613.5430480617 kilocalorie / mole

$$$$
