JNS-02456-01
     RDKit          3D

 41 44  0  0  0  0  0  0  0  0999 V2000
   -3.6609   -0.1463   -1.3134 F   0  0  0  0  0  0  0  0  0  0  0  0
   -2.3305   -0.2940   -1.5374 C   0  0  0  0  0  0  0  0  0  0  0  0
   -2.1550   -1.4913   -2.1400 F   0  0  0  0  0  0  0  0  0  0  0  0
   -1.9638    0.6609   -2.4213 F   0  0  0  0  0  0  0  0  0  0  0  0
   -1.5335   -0.1970   -0.2475 C   0  0  0  0  0  0  0  0  0  0  0  0
   -0.2204   -0.3584   -0.4002 N   0  0  0  0  0  0  0  0  0  0  0  0
    0.5740   -0.2952    0.6829 C   0  0  0  0  0  0  0  0  0  0  0  0
    0.0314   -0.0718    1.9650 C   0  0  0  0  0  0  0  0  0  0  0  0
   -1.3412    0.1034    2.1049 C   0  0  0  0  0  0  0  0  0  0  0  0
   -2.1611    0.0442    0.9734 C   0  0  0  0  0  0  0  0  0  0  0  0
    2.0232   -0.4957    0.4475 C   0  0  0  0  0  0  0  0  0  0  0  0
    2.9966   -0.1935    1.4381 C   0  0  0  0  0  0  0  0  0  0  0  0
    4.3094   -0.3674    1.3039 N   0  0  0  0  0  0  0  0  0  0  0  0
    4.7240   -0.8676    0.1234 C   0  0  0  0  0  0  0  0  0  0  0  0
    6.0440   -1.1984   -0.3320 C   0  0  0  0  0  0  0  0  0  0  0  0
    5.9054   -1.6847   -1.6122 C   0  0  0  0  0  0  0  0  0  0  0  0
    4.5693   -1.6813   -1.9913 N   0  0  0  0  0  0  0  0  0  0  0  0
    4.0339   -2.1486   -3.2524 C   0  0  0  0  0  0  0  0  0  0  0  0
    3.1983   -3.4355   -3.2258 C   0  0  0  0  0  0  0  0  0  0  0  0
    2.5318   -3.7321   -4.2156 O   0  0  0  0  0  0  0  0  0  0  0  0
    3.1959   -4.2033   -2.1069 N   0  0  0  0  0  0  0  0  0  0  0  0
    4.0549   -4.3724   -0.9123 C   0  0  0  0  0  0  0  0  0  0  0  0
    3.3782   -5.7440   -0.7194 C   0  0  0  0  0  0  0  0  0  0  0  0
    2.6543   -5.8648    0.4302 F   0  0  0  0  0  0  0  0  0  0  0  0
    4.2290   -6.8104   -0.7756 F   0  0  0  0  0  0  0  0  0  0  0  0
    2.5417   -5.5174   -1.9939 C   0  0  0  0  0  0  0  0  0  0  0  0
    3.8227   -1.1792   -0.9397 C   0  0  0  0  0  0  0  0  0  0  0  0
    2.4540   -0.9988   -0.7882 C   0  0  0  0  0  0  0  0  0  0  0  0
    0.6680   -0.0523    2.8420 H   0  0  0  0  0  0  0  0  0  0  0  0
   -1.7731    0.2755    3.0869 H   0  0  0  0  0  0  0  0  0  0  0  0
   -3.2354    0.1717    1.0371 H   0  0  0  0  0  0  0  0  0  0  0  0
    2.6850    0.2284    2.3907 H   0  0  0  0  0  0  0  0  0  0  0  0
    6.9688   -1.0818    0.2163 H   0  0  0  0  0  0  0  0  0  0  0  0
    6.6602   -2.0363   -2.3045 H   0  0  0  0  0  0  0  0  0  0  0  0
    3.3924   -1.3843   -3.7004 H   0  0  0  0  0  0  0  0  0  0  0  0
    4.8614   -2.3118   -3.9473 H   0  0  0  0  0  0  0  0  0  0  0  0
    3.8605   -3.6592   -0.1095 H   0  0  0  0  0  0  0  0  0  0  0  0
    5.1251   -4.4340   -1.1208 H   0  0  0  0  0  0  0  0  0  0  0  0
    2.7738   -6.1978   -2.8171 H   0  0  0  0  0  0  0  0  0  0  0  0
    1.4623   -5.4633   -1.8332 H   0  0  0  0  0  0  0  0  0  0  0  0
    1.7280   -1.2332   -1.5598 H   0  0  0  0  0  0  0  0  0  0  0  0
  1  2  1  0
  2  3  1  0
  2  4  1  0
  2  5  1  0
  5  6  2  0
  5 10  1  0
  6  7  1  0
  7  8  2  0
  7 11  1  0
  8  9  1  0
  8 29  1  0
  9 10  2  0
  9 30  1  0
 10 31  1  0
 11 12  2  0
 11 28  1  0
 12 13  1  0
 12 32  1  0
 13 14  2  0
 14 15  1  0
 14 27  1  0
 15 16  2  0
 15 33  1  0
 16 17  1  0
 16 34  1  0
 17 18  1  0
 17 27  1  0
 18 19  1  0
 18 35  1  0
 18 36  1  0
 19 20  2  0
 19 21  1  0
 21 22  1  0
 21 26  1  0
 22 23  1  0
 22 37  1  0
 22 38  1  0
 23 24  1  0
 23 25  1  0
 23 26  1  0
 26 39  1  0
 26 40  1  0
 27 28  2  0
 28 41  1  0
M  END
>  <group_name>  (1) 
JNS

>  <molecule_index>  (1) 
02456

>  <conformer_index>  (1) 
01

>  <method>  (1) 
b3lyp-d3bj

>  <basis>  (1) 
dzvp

>  <program>  (1) 
psi4

>  <initial_energy>  (1) 
-933361.6973618682 kilocalorie / mole

>  <final_energy>  (1) 
-933411.2006263811 kilocalorie / mole

$$$$
