JNS-01581-03
     RDKit          3D

 40 44  0  0  0  0  0  0  0  0999 V2000
   -0.4538    0.9837    1.6484 F   0  0  0  0  0  0  0  0  0  0  0  0
   -0.1418    0.4608    0.4385 C   0  0  0  0  0  0  0  0  0  0  0  0
   -0.7490    1.2332   -0.4984 F   0  0  0  0  0  0  0  0  0  0  0  0
   -0.7122   -0.7647    0.3762 F   0  0  0  0  0  0  0  0  0  0  0  0
    1.3570    0.3963    0.2271 C   0  0  0  0  0  0  0  0  0  0  0  0
    2.0082   -0.3552    1.1290 N   0  0  0  0  0  0  0  0  0  0  0  0
    3.3171   -0.4016    0.9460 C   0  0  0  0  0  0  0  0  0  0  0  0
    4.0648    0.2509   -0.0711 C   0  0  0  0  0  0  0  0  0  0  0  0
    3.3582    1.0189   -0.9953 C   0  0  0  0  0  0  0  0  0  0  0  0
    1.9687    1.0860   -0.8319 C   0  0  0  0  0  0  0  0  0  0  0  0
    5.4160   -0.0191    0.0826 N   0  0  0  0  0  0  0  0  0  0  0  0
    5.5021   -0.8069    1.1373 C   0  0  0  0  0  0  0  0  0  0  0  0
    6.7682   -1.3039    1.7415 C   0  0  0  0  0  0  0  0  0  0  0  0
    8.1012   -0.6823    1.2486 C   0  0  0  0  0  0  0  0  0  0  0  0
    8.5934   -0.6591    2.7234 C   0  0  0  0  0  0  0  0  0  0  0  0
    7.1212   -0.8308    3.1909 C   0  0  0  0  0  0  0  0  0  0  0  0
    4.2574   -1.0881    1.7058 N   0  0  0  0  0  0  0  0  0  0  0  0
    3.9928   -1.8629    2.8734 C   0  0  0  0  0  0  0  0  0  0  0  0
    4.3123   -3.2116    2.8983 C   0  0  0  0  0  0  0  0  0  0  0  0
    4.0762   -3.9247    4.0884 C   0  0  0  0  0  0  0  0  0  0  0  0
    3.5013   -3.2655    5.2061 C   0  0  0  0  0  0  0  0  0  0  0  0
    3.3884   -4.2074    6.1876 N   0  0  0  0  0  0  0  0  0  0  0  0
    3.8445   -5.4263    5.7872 N   0  0  0  0  0  0  0  0  0  0  0  0
    4.2577   -5.2735    4.5381 C   0  0  0  0  0  0  0  0  0  0  0  0
    3.1618   -1.9045    5.1538 C   0  0  0  0  0  0  0  0  0  0  0  0
    2.4436   -1.1353    6.5521 Cl  0  0  0  0  0  0  0  0  0  0  0  0
    3.4131   -1.2058    3.9884 C   0  0  0  0  0  0  0  0  0  0  0  0
    3.8627    1.5432   -1.8015 H   0  0  0  0  0  0  0  0  0  0  0  0
    1.3604    1.6683   -1.5138 H   0  0  0  0  0  0  0  0  0  0  0  0
    6.8080   -2.3968    1.6935 H   0  0  0  0  0  0  0  0  0  0  0  0
    7.9368    0.3189    0.8454 H   0  0  0  0  0  0  0  0  0  0  0  0
    8.6771   -1.2645    0.5255 H   0  0  0  0  0  0  0  0  0  0  0  0
    9.2014   -1.5350    2.9685 H   0  0  0  0  0  0  0  0  0  0  0  0
    9.1191    0.2379    3.0602 H   0  0  0  0  0  0  0  0  0  0  0  0
    6.9139   -1.5313    4.0033 H   0  0  0  0  0  0  0  0  0  0  0  0
    6.6486    0.1285    3.4209 H   0  0  0  0  0  0  0  0  0  0  0  0
    4.7239   -3.6958    2.0185 H   0  0  0  0  0  0  0  0  0  0  0  0
    3.0088   -4.0960    7.1180 H   0  0  0  0  0  0  0  0  0  0  0  0
    4.6675   -6.1187    3.9993 H   0  0  0  0  0  0  0  0  0  0  0  0
    3.1626   -0.1534    3.9163 H   0  0  0  0  0  0  0  0  0  0  0  0
  1  2  1  0
  2  3  1  0
  2  4  1  0
  2  5  1  0
  5  6  2  0
  5 10  1  0
  6  7  1  0
  7  8  2  0
  7 17  1  0
  8  9  1  0
  8 11  1  0
  9 10  2  0
  9 28  1  0
 10 29  1  0
 11 12  2  0
 12 13  1  0
 12 17  1  0
 13 14  1  0
 13 16  1  0
 13 30  1  0
 14 15  1  0
 14 31  1  0
 14 32  1  0
 15 16  1  0
 15 33  1  0
 15 34  1  0
 16 35  1  0
 16 36  1  0
 17 18  1  0
 18 19  2  0
 18 27  1  0
 19 20  1  0
 19 37  1  0
 20 21  2  0
 20 24  1  0
 21 22  1  0
 21 25  1  0
 22 23  1  0
 22 38  1  0
 23 24  2  0
 24 39  1  0
 25 26  1  0
 25 27  2  0
 27 40  1  0
M  END
>  <group_name>  (1) 
JNS

>  <molecule_index>  (1) 
01581

>  <conformer_index>  (1) 
03

>  <method>  (1) 
b3lyp-d3bj

>  <basis>  (1) 
dzvp

>  <program>  (1) 
psi4

>  <initial_energy>  (1) 
-1083924.1234779702 kilocalorie / mole

>  <final_energy>  (1) 
-1083978.6489490378 kilocalorie / mole

$$$$
