JNS-01754-01
     RDKit          3D

 31 33  0  0  0  0  0  0  0  0999 V2000
   -4.8283   -0.9145   -0.9879 F   0  0  0  0  0  0  0  0  0  0  0  0
   -4.3395   -0.2895    0.1173 C   0  0  0  0  0  0  0  0  0  0  0  0
   -4.9302    0.9243    0.1825 F   0  0  0  0  0  0  0  0  0  0  0  0
   -4.7563   -0.9976    1.1914 F   0  0  0  0  0  0  0  0  0  0  0  0
   -2.8297   -0.1817    0.0645 C   0  0  0  0  0  0  0  0  0  0  0  0
   -2.0995   -0.7061   -1.0034 C   0  0  0  0  0  0  0  0  0  0  0  0
   -0.7159   -0.5714   -0.9768 C   0  0  0  0  0  0  0  0  0  0  0  0
   -0.1053    0.0785    0.1075 C   0  0  0  0  0  0  0  0  0  0  0  0
    1.2886    0.1978    0.1007 N   0  0  0  0  0  0  0  0  0  0  0  0
    2.1166    0.7650    1.0442 C   0  0  0  0  0  0  0  0  0  0  0  0
    1.7511    1.3003    2.1717 N   0  0  0  0  0  0  0  0  0  0  0  0
    2.8448    1.7877    2.8791 C   0  0  0  0  0  0  0  0  0  0  0  0
    4.0562    1.6043    2.2655 C   0  0  0  0  0  0  0  0  0  0  0  0
    3.8588    0.8015    0.7324 S   0  0  0  0  0  0  0  0  0  0  0  0
    2.6265    2.4224    4.1889 C   0  0  0  0  0  0  0  0  0  0  0  0
    3.6115    3.1973    4.8211 C   0  0  0  0  0  0  0  0  0  0  0  0
    3.3415    3.7534    6.0686 C   0  0  0  0  0  0  0  0  0  0  0  0
    2.0882    3.5251    6.6479 C   0  0  0  0  0  0  0  0  0  0  0  0
    1.1299    2.7960    6.0606 N   0  0  0  0  0  0  0  0  0  0  0  0
    1.4011    2.2640    4.8630 C   0  0  0  0  0  0  0  0  0  0  0  0
   -0.9403    0.5734    1.1352 C   0  0  0  0  0  0  0  0  0  0  0  0
   -2.2662    0.4401    1.1025 N   0  0  0  0  0  0  0  0  0  0  0  0
   -2.5954   -1.2037   -1.8290 H   0  0  0  0  0  0  0  0  0  0  0  0
   -0.1130   -0.9680   -1.7914 H   0  0  0  0  0  0  0  0  0  0  0  0
    1.7513   -0.1914   -0.7105 H   0  0  0  0  0  0  0  0  0  0  0  0
    5.0455    1.8580    2.6193 H   0  0  0  0  0  0  0  0  0  0  0  0
    4.5689    3.3781    4.3396 H   0  0  0  0  0  0  0  0  0  0  0  0
    4.0804    4.3615    6.5827 H   0  0  0  0  0  0  0  0  0  0  0  0
    1.8433    3.9492    7.6205 H   0  0  0  0  0  0  0  0  0  0  0  0
    0.6116    1.6747    4.4042 H   0  0  0  0  0  0  0  0  0  0  0  0
   -0.5109    1.0828    1.9883 H   0  0  0  0  0  0  0  0  0  0  0  0
  1  2  1  0
  2  3  1  0
  2  4  1  0
  2  5  1  0
  5  6  2  0
  5 22  1  0
  6  7  1  0
  6 23  1  0
  7  8  2  0
  7 24  1  0
  8  9  1  0
  8 21  1  0
  9 10  1  0
  9 25  1  0
 10 11  2  0
 10 14  1  0
 11 12  1  0
 12 13  2  0
 12 15  1  0
 13 14  1  0
 13 26  1  0
 15 16  2  0
 15 20  1  0
 16 17  1  0
 16 27  1  0
 17 18  2  0
 17 28  1  0
 18 19  1  0
 18 29  1  0
 19 20  2  0
 20 30  1  0
 21 22  2  0
 21 31  1  0
M  END
>  <group_name>  (1) 
JNS

>  <molecule_index>  (1) 
01754

>  <conformer_index>  (1) 
01

>  <method>  (1) 
b3lyp-d3bj

>  <basis>  (1) 
dzvp

>  <program>  (1) 
psi4

>  <initial_energy>  (1) 
-913529.3728914866 kilocalorie / mole

>  <final_energy>  (1) 
-913535.9735559751 kilocalorie / mole

$$$$
