JNS-01242-09
     RDKit          3D

 41 45  0  0  0  0  0  0  0  0999 V2000
   -1.9262    5.4162    0.6451 F   0  0  0  0  0  0  0  0  0  0  0  0
   -0.9161    4.5153    0.5370 C   0  0  0  0  0  0  0  0  0  0  0  0
   -0.1997    4.5808    1.6842 F   0  0  0  0  0  0  0  0  0  0  0  0
   -0.1078    4.9409   -0.4616 F   0  0  0  0  0  0  0  0  0  0  0  0
   -1.4385    3.1160    0.2814 C   0  0  0  0  0  0  0  0  0  0  0  0
   -2.8181    2.8642    0.1966 C   0  0  0  0  0  0  0  0  0  0  0  0
   -3.2738    1.5612   -0.0358 C   0  0  0  0  0  0  0  0  0  0  0  0
   -2.3020    0.5700   -0.1728 C   0  0  0  0  0  0  0  0  0  0  0  0
   -2.3814   -0.7931   -0.4002 N   0  0  0  0  0  0  0  0  0  0  0  0
   -1.1339   -1.2273   -0.4354 C   0  0  0  0  0  0  0  0  0  0  0  0
   -0.7940   -2.6636   -0.6850 C   0  0  2  0  0  0  0  0  0  0  0  0
    0.1708   -3.3520    0.3282 C   0  0  0  0  0  0  0  0  0  0  0  0
    1.3677   -3.7749   -0.5376 C   0  0  0  0  0  0  0  0  0  0  0  0
    0.8235   -3.9810   -1.8447 O   0  0  0  0  0  0  0  0  0  0  0  0
   -0.1089   -2.9276   -2.0613 C   0  0  0  0  0  0  0  0  0  0  0  0
   -0.2042   -0.1999   -0.2413 N   0  0  0  0  0  0  0  0  0  0  0  0
   -0.9430    0.9656   -0.0666 C   0  0  0  0  0  0  0  0  0  0  0  0
   -0.4806    2.1849    0.1544 N   0  0  0  0  0  0  0  0  0  0  0  0
    1.2251   -0.2598   -0.1972 C   0  0  0  0  0  0  0  0  0  0  0  0
    1.9579   -0.1010   -1.3844 C   0  0  0  0  0  0  0  0  0  0  0  0
    3.3548   -0.1520   -1.3933 C   0  0  0  0  0  0  0  0  0  0  0  0
    3.9990   -0.3572   -0.1724 C   0  0  0  0  0  0  0  0  0  0  0  0
    5.3582   -0.4564    0.1609 N   0  0  0  0  0  0  0  0  0  0  0  0
    5.3395   -0.6257    1.4465 C   0  0  0  0  0  0  0  0  0  0  0  0
    6.3686   -0.7781    2.2747 O   0  0  0  0  0  0  0  0  0  0  0  0
    4.1215   -0.6592    2.0570 O   0  0  0  0  0  0  0  0  0  0  0  0
    3.2360   -0.4843    1.0019 C   0  0  0  0  0  0  0  0  0  0  0  0
    1.8563   -0.4317    1.0430 C   0  0  0  0  0  0  0  0  0  0  0  0
   -3.5195    3.6820    0.3124 H   0  0  0  0  0  0  0  0  0  0  0  0
   -4.3330    1.3318   -0.1058 H   0  0  0  0  0  0  0  0  0  0  0  0
   -1.7585   -3.1716   -0.6675 H   0  0  0  0  0  0  0  0  0  0  0  0
   -0.3230   -4.2306    0.7496 H   0  0  0  0  0  0  0  0  0  0  0  0
    0.4621   -2.7060    1.1566 H   0  0  0  0  0  0  0  0  0  0  0  0
    2.1356   -2.9895   -0.5645 H   0  0  0  0  0  0  0  0  0  0  0  0
    1.8304   -4.7121   -0.2208 H   0  0  0  0  0  0  0  0  0  0  0  0
    0.4066   -2.0299   -2.4232 H   0  0  0  0  0  0  0  0  0  0  0  0
   -0.8188   -3.2551   -2.8235 H   0  0  0  0  0  0  0  0  0  0  0  0
    1.4167    0.0737   -2.3087 H   0  0  0  0  0  0  0  0  0  0  0  0
    3.9187   -0.0324   -2.3126 H   0  0  0  0  0  0  0  0  0  0  0  0
    7.1772   -0.7308    1.7331 H   0  0  0  0  0  0  0  0  0  0  0  0
    1.2890   -0.5119    1.9639 H   0  0  0  0  0  0  0  0  0  0  0  0
  1  2  1  0
  2  3  1  0
  2  4  1  0
  2  5  1  0
  5  6  2  0
  5 18  1  0
  6  7  1  0
  6 29  1  0
  7  8  2  0
  7 30  1  0
  8  9  1  0
  8 17  1  0
  9 10  2  0
 10 11  1  0
 10 16  1  0
 11 12  1  0
 11 15  1  0
 11 31  1  6
 12 13  1  0
 12 32  1  0
 12 33  1  0
 13 14  1  0
 13 34  1  0
 13 35  1  0
 14 15  1  0
 15 36  1  0
 15 37  1  0
 16 17  1  0
 16 19  1  0
 17 18  2  0
 19 20  2  0
 19 28  1  0
 20 21  1  0
 20 38  1  0
 21 22  2  0
 21 39  1  0
 22 23  1  0
 22 27  1  0
 23 24  2  0
 24 25  1  0
 24 26  1  0
 25 40  1  0
 26 27  1  0
 27 28  2  0
 28 41  1  0
M  END
>  <group_name>  (1) 
JNS

>  <molecule_index>  (1) 
01242

>  <conformer_index>  (1) 
09

>  <method>  (1) 
b3lyp-d3bj

>  <basis>  (1) 
dzvp

>  <program>  (1) 
psi4

>  <initial_energy>  (1) 
-902434.0439024592 kilocalorie / mole

>  <final_energy>  (1) 
-902512.0030851879 kilocalorie / mole

$$$$
