JNS-01581-04
     RDKit          3D

 40 44  0  0  0  0  0  0  0  0999 V2000
   -0.2489   -1.6551   -0.3741 F   0  0  0  0  0  0  0  0  0  0  0  0
   -0.0693   -0.3260   -0.1854 C   0  0  0  0  0  0  0  0  0  0  0  0
   -0.6594    0.3085   -1.2304 F   0  0  0  0  0  0  0  0  0  0  0  0
   -0.7584    0.0140    0.9285 F   0  0  0  0  0  0  0  0  0  0  0  0
    1.3991    0.0289   -0.0701 C   0  0  0  0  0  0  0  0  0  0  0  0
    2.0330   -0.5753    0.9474 N   0  0  0  0  0  0  0  0  0  0  0  0
    3.3163   -0.2694    1.0392 C   0  0  0  0  0  0  0  0  0  0  0  0
    4.0545    0.5979    0.1893 C   0  0  0  0  0  0  0  0  0  0  0  0
    3.3655    1.2140   -0.8543 C   0  0  0  0  0  0  0  0  0  0  0  0
    2.0029    0.9142   -0.9772 C   0  0  0  0  0  0  0  0  0  0  0  0
    5.3805    0.6448    0.5914 N   0  0  0  0  0  0  0  0  0  0  0  0
    5.4598   -0.1470    1.6435 C   0  0  0  0  0  0  0  0  0  0  0  0
    6.7093   -0.4786    2.3812 C   0  0  0  0  0  0  0  0  0  0  0  0
    8.0604   -0.0533    1.7490 C   0  0  0  0  0  0  0  0  0  0  0  0
    8.6492   -1.4293    2.1709 C   0  0  0  0  0  0  0  0  0  0  0  0
    7.2014   -1.9639    2.3546 C   0  0  0  0  0  0  0  0  0  0  0  0
    4.2343   -0.7287    1.9769 N   0  0  0  0  0  0  0  0  0  0  0  0
    3.9739   -1.6635    3.0219 C   0  0  0  0  0  0  0  0  0  0  0  0
    4.1626   -1.2953    4.3450 C   0  0  0  0  0  0  0  0  0  0  0  0
    3.9378   -2.2656    5.3392 C   0  0  0  0  0  0  0  0  0  0  0  0
    3.5042   -3.5666    4.9733 C   0  0  0  0  0  0  0  0  0  0  0  0
    3.3658   -4.2641    6.1384 N   0  0  0  0  0  0  0  0  0  0  0  0
    3.6746   -3.5109    7.2299 N   0  0  0  0  0  0  0  0  0  0  0  0
    4.0174   -2.3172    6.7695 C   0  0  0  0  0  0  0  0  0  0  0  0
    3.2951   -3.9135    3.6293 C   0  0  0  0  0  0  0  0  0  0  0  0
    2.7485   -5.5260    3.2247 Cl  0  0  0  0  0  0  0  0  0  0  0  0
    3.5353   -2.9616    2.6568 C   0  0  0  0  0  0  0  0  0  0  0  0
    3.8637    1.8917   -1.5413 H   0  0  0  0  0  0  0  0  0  0  0  0
    1.4097    1.3567   -1.7687 H   0  0  0  0  0  0  0  0  0  0  0  0
    6.6401   -0.1345    3.4181 H   0  0  0  0  0  0  0  0  0  0  0  0
    7.9671    0.0488    0.6661 H   0  0  0  0  0  0  0  0  0  0  0  0
    8.5284    0.8488    2.1501 H   0  0  0  0  0  0  0  0  0  0  0  0
    9.2802   -1.9464    1.4437 H   0  0  0  0  0  0  0  0  0  0  0  0
    9.1847   -1.3737    3.1233 H   0  0  0  0  0  0  0  0  0  0  0  0
    6.9818   -2.5728    3.2347 H   0  0  0  0  0  0  0  0  0  0  0  0
    6.8398   -2.4854    1.4636 H   0  0  0  0  0  0  0  0  0  0  0  0
    4.4664   -0.2843    4.5968 H   0  0  0  0  0  0  0  0  0  0  0  0
    3.0612   -5.2204    6.2602 H   0  0  0  0  0  0  0  0  0  0  0  0
    4.3072   -1.5361    7.4612 H   0  0  0  0  0  0  0  0  0  0  0  0
    3.3834   -3.1985    1.6097 H   0  0  0  0  0  0  0  0  0  0  0  0
  1  2  1  0
  2  3  1  0
  2  4  1  0
  2  5  1  0
  5  6  2  0
  5 10  1  0
  6  7  1  0
  7  8  2  0
  7 17  1  0
  8  9  1  0
  8 11  1  0
  9 10  2  0
  9 28  1  0
 10 29  1  0
 11 12  2  0
 12 13  1  0
 12 17  1  0
 13 14  1  0
 13 16  1  0
 13 30  1  0
 14 15  1  0
 14 31  1  0
 14 32  1  0
 15 16  1  0
 15 33  1  0
 15 34  1  0
 16 35  1  0
 16 36  1  0
 17 18  1  0
 18 19  2  0
 18 27  1  0
 19 20  1  0
 19 37  1  0
 20 21  2  0
 20 24  1  0
 21 22  1  0
 21 25  1  0
 22 23  1  0
 22 38  1  0
 23 24  2  0
 24 39  1  0
 25 26  1  0
 25 27  2  0
 27 40  1  0
M  END
>  <group_name>  (1) 
JNS

>  <molecule_index>  (1) 
01581

>  <conformer_index>  (1) 
04

>  <method>  (1) 
b3lyp-d3bj

>  <basis>  (1) 
dzvp

>  <program>  (1) 
psi4

>  <initial_energy>  (1) 
-1083928.30526101 kilocalorie / mole

>  <final_energy>  (1) 
-1083978.6491060765 kilocalorie / mole

$$$$
