JNS-01564-03
     RDKit          3D

 45 49  0  0  0  0  0  0  0  0999 V2000
   -2.6817   -0.2956   -2.7981 C   0  0  0  0  0  0  0  0  0  0  0  0
   -1.9887   -0.1211   -1.4696 C   0  0  0  0  0  0  0  0  0  0  0  0
   -2.7093   -0.0652   -0.2737 C   0  0  0  0  0  0  0  0  0  0  0  0
   -4.0983   -0.1515   -0.0947 N   0  0  0  0  0  0  0  0  0  0  0  0
   -4.4661   -0.0863    1.2441 C   0  0  0  0  0  0  0  0  0  0  0  0
   -5.6068   -0.1387    1.6705 O   0  0  0  0  0  0  0  0  0  0  0  0
   -3.1609    0.0615    2.0435 C   0  0  0  0  0  0  0  0  0  0  0  0
   -2.0901    0.0729    0.9800 C   0  0  0  0  0  0  0  0  0  0  0  0
   -0.7110    0.1700    1.0640 C   0  0  0  0  0  0  0  0  0  0  0  0
    0.0549    0.1441   -0.1226 C   0  0  0  0  0  0  0  0  0  0  0  0
   -0.5970   -0.0139   -1.3606 C   0  0  0  0  0  0  0  0  0  0  0  0
    1.5166    0.2084   -0.1048 C   0  0  0  0  0  0  0  0  0  0  0  0
    2.4499   -0.5351   -0.8653 C   0  0  0  0  0  0  0  0  0  0  0  0
    2.2515   -1.4670   -1.8230 N   0  0  0  0  0  0  0  0  0  0  0  0
    3.3502   -1.9852   -2.3410 C   0  0  0  0  0  0  0  0  0  0  0  0
    4.6810   -1.6381   -1.9609 C   0  0  0  0  0  0  0  0  0  0  0  0
    4.8902   -0.6900   -0.9787 C   0  0  0  0  0  0  0  0  0  0  0  0
    3.7379   -0.1082   -0.4014 C   0  0  0  0  0  0  0  0  0  0  0  0
    3.6262    0.8321    0.5556 N   0  0  0  0  0  0  0  0  0  0  0  0
    2.2845    1.0037    0.6975 N   0  0  0  0  0  0  0  0  0  0  0  0
    1.8254    2.0185    1.6374 C   0  0  0  0  0  0  0  0  0  0  0  0
    2.6555    3.3191    1.7714 C   0  0  0  0  0  0  0  0  0  0  0  0
    2.3914    3.2668    3.3039 C   0  0  0  0  0  0  0  0  0  0  0  0
    2.0304    1.7618    3.1536 C   0  0  0  0  0  0  0  0  0  0  0  0
    3.1076   -3.0291   -3.4159 C   0  0  0  0  0  0  0  0  0  0  0  0
    4.2719   -3.4786   -3.9528 F   0  0  0  0  0  0  0  0  0  0  0  0
    2.3641   -2.5375   -4.4352 F   0  0  0  0  0  0  0  0  0  0  0  0
    2.4518   -4.1096   -2.9309 F   0  0  0  0  0  0  0  0  0  0  0  0
   -3.2576   -1.2285   -2.8278 H   0  0  0  0  0  0  0  0  0  0  0  0
   -3.3770    0.5285   -3.0004 H   0  0  0  0  0  0  0  0  0  0  0  0
   -1.9588   -0.3293   -3.6162 H   0  0  0  0  0  0  0  0  0  0  0  0
   -4.7833   -0.2645   -0.8314 H   0  0  0  0  0  0  0  0  0  0  0  0
   -3.0736   -0.7751    2.7442 H   0  0  0  0  0  0  0  0  0  0  0  0
   -3.2047    0.9806    2.6364 H   0  0  0  0  0  0  0  0  0  0  0  0
   -0.2243    0.2252    2.0331 H   0  0  0  0  0  0  0  0  0  0  0  0
    0.0052   -0.0642   -2.2620 H   0  0  0  0  0  0  0  0  0  0  0  0
    5.5172   -2.1237   -2.4505 H   0  0  0  0  0  0  0  0  0  0  0  0
    5.8891   -0.4009   -0.6651 H   0  0  0  0  0  0  0  0  0  0  0  0
    0.7845    2.2342    1.3990 H   0  0  0  0  0  0  0  0  0  0  0  0
    3.7026    3.1311    1.5329 H   0  0  0  0  0  0  0  0  0  0  0  0
    2.2969    4.1865    1.2114 H   0  0  0  0  0  0  0  0  0  0  0  0
    3.2300    3.5112    3.9595 H   0  0  0  0  0  0  0  0  0  0  0  0
    1.5266    3.8692    3.5959 H   0  0  0  0  0  0  0  0  0  0  0  0
    1.1771    1.3724    3.7168 H   0  0  0  0  0  0  0  0  0  0  0  0
    2.8994    1.1192    3.3140 H   0  0  0  0  0  0  0  0  0  0  0  0
  1  2  1  0
  1 29  1  0
  1 30  1  0
  1 31  1  0
  2  3  2  0
  2 11  1  0
  3  4  1  0
  3  8  1  0
  4  5  1  0
  4 32  1  0
  5  6  2  0
  5  7  1  0
  7  8  1  0
  7 33  1  0
  7 34  1  0
  8  9  2  0
  9 10  1  0
  9 35  1  0
 10 11  2  0
 10 12  1  0
 11 36  1  0
 12 13  2  0
 12 20  1  0
 13 14  1  0
 13 18  1  0
 14 15  2  0
 15 16  1  0
 15 25  1  0
 16 17  2  0
 16 37  1  0
 17 18  1  0
 17 38  1  0
 18 19  2  0
 19 20  1  0
 20 21  1  0
 21 22  1  0
 21 24  1  0
 21 39  1  0
 22 23  1  0
 22 40  1  0
 22 41  1  0
 23 24  1  0
 23 42  1  0
 23 43  1  0
 24 44  1  0
 24 45  1  0
 25 26  1  0
 25 27  1  0
 25 28  1  0
M  END
>  <group_name>  (1) 
JNS

>  <molecule_index>  (1) 
01564

>  <conformer_index>  (1) 
03

>  <method>  (1) 
b3lyp-d3bj

>  <basis>  (1) 
dzvp

>  <program>  (1) 
psi4

>  <initial_energy>  (1) 
-857367.7216973886 kilocalorie / mole

>  <final_energy>  (1) 
-857427.3091151199 kilocalorie / mole

$$$$
