JNS-02240-02
     RDKit          3D

 51 55  0  0  0  0  0  0  0  0999 V2000
    1.4397    5.5185    4.1432 C   0  0  0  0  0  0  0  0  0  0  0  0
    0.4731    4.5900    3.4615 C   0  0  0  0  0  0  0  0  0  0  0  0
   -0.6517    4.2752    4.1214 N   0  0  0  0  0  0  0  0  0  0  0  0
   -1.4989    3.4260    3.5244 C   0  0  0  0  0  0  0  0  0  0  0  0
   -2.7427    3.1051    4.2887 C   0  0  0  0  0  0  0  0  0  0  0  0
   -3.5437    4.1266    4.6287 N   0  0  0  0  0  0  0  0  0  0  0  0
   -4.6362    3.8159    5.3329 C   0  0  0  0  0  0  0  0  0  0  0  0
   -4.9325    2.4993    5.7048 C   0  0  0  0  0  0  0  0  0  0  0  0
   -4.1356    1.4769    5.3722 N   0  0  0  0  0  0  0  0  0  0  0  0
   -3.0454    1.7869    4.6622 C   0  0  0  0  0  0  0  0  0  0  0  0
   -1.2466    2.8680    2.2608 C   0  0  0  0  0  0  0  0  0  0  0  0
   -2.2102    1.9509    1.5329 C   0  0  0  0  0  0  0  0  0  0  0  0
   -1.8847    1.9198    0.0337 C   0  0  1  0  0  0  0  0  0  0  0  0
   -2.1958    3.2648   -0.6774 C   0  0  0  0  0  0  0  0  0  0  0  0
   -1.0439    3.6870   -1.5968 C   0  0  0  0  0  0  0  0  0  0  0  0
    0.2627    3.8582   -0.8019 C   0  0  0  0  0  0  0  0  0  0  0  0
    0.3851    2.7615    0.2967 C   0  0  2  0  0  0  0  0  0  0  0  0
   -0.4472    1.6208   -0.0755 N   0  0  0  0  0  0  0  0  0  0  0  0
   -0.0277    0.3413   -0.2458 C   0  0  0  0  0  0  0  0  0  0  0  0
   -0.7779   -0.6070   -0.4785 O   0  0  0  0  0  0  0  0  0  0  0  0
    1.4629    0.0950   -0.1765 C   0  0  0  0  0  0  0  0  0  0  0  0
    2.1973   -0.0532   -1.3542 C   0  0  0  0  0  0  0  0  0  0  0  0
    3.5549   -0.3594   -1.2689 C   0  0  0  0  0  0  0  0  0  0  0  0
    4.1902   -0.5275   -0.1045 N   0  0  0  0  0  0  0  0  0  0  0  0
    3.4971   -0.3990    1.0257 C   0  0  0  0  0  0  0  0  0  0  0  0
    2.1278   -0.0858    1.0413 C   0  0  0  0  0  0  0  0  0  0  0  0
    1.2335    0.0932    2.5319 Cl  0  0  0  0  0  0  0  0  0  0  0  0
    4.2897   -0.6085    2.3158 C   0  0  0  0  0  0  0  0  0  0  0  0
    5.5725   -0.9030    2.0709 F   0  0  0  0  0  0  0  0  0  0  0  0
    4.2656    0.5071    3.0884 F   0  0  0  0  0  0  0  0  0  0  0  0
    3.7694   -1.6213    3.0516 F   0  0  0  0  0  0  0  0  0  0  0  0
   -0.0382    3.2645    1.6681 C   0  0  0  0  0  0  0  0  0  0  0  0
    0.8094    4.1181    2.2511 N   0  0  0  0  0  0  0  0  0  0  0  0
    2.0531    6.0409    3.4069 H   0  0  0  0  0  0  0  0  0  0  0  0
    2.1087    4.9410    4.7920 H   0  0  0  0  0  0  0  0  0  0  0  0
    0.9032    6.2329    4.7707 H   0  0  0  0  0  0  0  0  0  0  0  0
   -5.2952    4.6367    5.6104 H   0  0  0  0  0  0  0  0  0  0  0  0
   -5.8263    2.2664    6.2802 H   0  0  0  0  0  0  0  0  0  0  0  0
   -2.3833    0.9658    4.3949 H   0  0  0  0  0  0  0  0  0  0  0  0
   -2.1388    0.9305    1.9245 H   0  0  0  0  0  0  0  0  0  0  0  0
   -3.2425    2.2820    1.6882 H   0  0  0  0  0  0  0  0  0  0  0  0
   -2.4140    1.0969   -0.4451 H   0  0  0  0  0  0  0  0  0  0  0  0
   -3.1250    3.1629   -1.2451 H   0  0  0  0  0  0  0  0  0  0  0  0
   -2.3682    4.0494    0.0681 H   0  0  0  0  0  0  0  0  0  0  0  0
   -1.2920    4.6193   -2.1135 H   0  0  0  0  0  0  0  0  0  0  0  0
   -0.9073    2.9232   -2.3705 H   0  0  0  0  0  0  0  0  0  0  0  0
    0.3075    4.8396   -0.3222 H   0  0  0  0  0  0  0  0  0  0  0  0
    1.1225    3.7926   -1.4754 H   0  0  0  0  0  0  0  0  0  0  0  0
    1.4253    2.4520    0.3841 H   0  0  0  0  0  0  0  0  0  0  0  0
    1.7118    0.0615   -2.3190 H   0  0  0  0  0  0  0  0  0  0  0  0
    4.1579   -0.4769   -2.1666 H   0  0  0  0  0  0  0  0  0  0  0  0
  1  2  1  0
  1 34  1  0
  1 35  1  0
  1 36  1  0
  2  3  2  0
  2 33  1  0
  3  4  1  0
  4  5  1  0
  4 11  2  0
  5  6  2  0
  5 10  1  0
  6  7  1  0
  7  8  2  0
  7 37  1  0
  8  9  1  0
  8 38  1  0
  9 10  2  0
 10 39  1  0
 11 12  1  0
 11 32  1  0
 12 13  1  0
 12 40  1  0
 12 41  1  0
 13 14  1  0
 13 18  1  0
 13 42  1  6
 14 15  1  0
 14 43  1  0
 14 44  1  0
 15 16  1  0
 15 45  1  0
 15 46  1  0
 16 17  1  0
 16 47  1  0
 16 48  1  0
 17 18  1  0
 17 32  1  0
 17 49  1  1
 18 19  1  0
 19 20  2  0
 19 21  1  0
 21 22  2  0
 21 26  1  0
 22 23  1  0
 22 50  1  0
 23 24  2  0
 23 51  1  0
 24 25  1  0
 25 26  2  0
 25 28  1  0
 26 27  1  0
 28 29  1  0
 28 30  1  0
 28 31  1  0
 32 33  2  0
M  END
>  <group_name>  (1) 
JNS

>  <molecule_index>  (1) 
02240

>  <conformer_index>  (1) 
02

>  <method>  (1) 
b3lyp-d3bj

>  <basis>  (1) 
dzvp

>  <program>  (1) 
psi4

>  <initial_energy>  (1) 
-1263084.6198096843 kilocalorie / mole

>  <final_energy>  (1) 
-1263136.257455426 kilocalorie / mole

$$$$
