JNS-01581-05
     RDKit          3D

 40 44  0  0  0  0  0  0  0  0999 V2000
   -0.4801   -1.2508   -0.0710 F   0  0  0  0  0  0  0  0  0  0  0  0
   -0.0029    0.0145    0.0096 C   0  0  0  0  0  0  0  0  0  0  0  0
   -0.4938    0.5522    1.1503 F   0  0  0  0  0  0  0  0  0  0  0  0
   -0.5401    0.7107   -1.0246 F   0  0  0  0  0  0  0  0  0  0  0  0
    1.5115    0.0448   -0.0206 C   0  0  0  0  0  0  0  0  0  0  0  0
    2.0953   -0.6314    0.9811 N   0  0  0  0  0  0  0  0  0  0  0  0
    3.4172   -0.6056    0.9519 C   0  0  0  0  0  0  0  0  0  0  0  0
    4.2394    0.0405   -0.0092 C   0  0  0  0  0  0  0  0  0  0  0  0
    3.6030    0.7360   -1.0366 C   0  0  0  0  0  0  0  0  0  0  0  0
    2.2027    0.7317   -1.0315 C   0  0  0  0  0  0  0  0  0  0  0  0
    5.5746   -0.1715    0.2883 N   0  0  0  0  0  0  0  0  0  0  0  0
    5.5852   -0.9104    1.3824 C   0  0  0  0  0  0  0  0  0  0  0  0
    6.8122   -1.3689    2.0910 C   0  0  0  0  0  0  0  0  0  0  0  0
    7.4390   -0.2704    3.0282 C   0  0  0  0  0  0  0  0  0  0  0  0
    8.5168    0.0094    1.9461 C   0  0  0  0  0  0  0  0  0  0  0  0
    8.1080   -1.3041    1.2264 C   0  0  0  0  0  0  0  0  0  0  0  0
    4.2992   -1.2045    1.8472 N   0  0  0  0  0  0  0  0  0  0  0  0
    3.9264   -1.9746    2.9876 C   0  0  0  0  0  0  0  0  0  0  0  0
    4.4190   -1.6471    4.2426 C   0  0  0  0  0  0  0  0  0  0  0  0
    4.0376   -2.4503    5.3332 C   0  0  0  0  0  0  0  0  0  0  0  0
    3.1520   -3.5409    5.1355 C   0  0  0  0  0  0  0  0  0  0  0  0
    2.9639   -4.1071    6.3632 N   0  0  0  0  0  0  0  0  0  0  0  0
    3.6603   -3.4627    7.3400 N   0  0  0  0  0  0  0  0  0  0  0  0
    4.3053   -2.4728    6.7412 C   0  0  0  0  0  0  0  0  0  0  0  0
    2.6474   -3.8452    3.8616 C   0  0  0  0  0  0  0  0  0  0  0  0
    1.5492   -5.1932    3.6635 Cl  0  0  0  0  0  0  0  0  0  0  0  0
    3.0403   -3.0656    2.7905 C   0  0  0  0  0  0  0  0  0  0  0  0
    4.1680    1.2550   -1.8052 H   0  0  0  0  0  0  0  0  0  0  0  0
    1.6463    1.2519   -1.8022 H   0  0  0  0  0  0  0  0  0  0  0  0
    6.6145   -2.3242    2.5828 H   0  0  0  0  0  0  0  0  0  0  0  0
    7.8501   -0.7183    3.9375 H   0  0  0  0  0  0  0  0  0  0  0  0
    6.7877    0.5637    3.3044 H   0  0  0  0  0  0  0  0  0  0  0  0
    9.5504    0.0865    2.2933 H   0  0  0  0  0  0  0  0  0  0  0  0
    8.2733    0.8892    1.3464 H   0  0  0  0  0  0  0  0  0  0  0  0
    8.7744   -2.1394    1.4580 H   0  0  0  0  0  0  0  0  0  0  0  0
    7.9539   -1.2450    0.1483 H   0  0  0  0  0  0  0  0  0  0  0  0
    5.0701   -0.7899    4.3740 H   0  0  0  0  0  0  0  0  0  0  0  0
    2.3850   -4.9010    6.6018 H   0  0  0  0  0  0  0  0  0  0  0  0
    4.9343   -1.8104    7.3226 H   0  0  0  0  0  0  0  0  0  0  0  0
    2.6625   -3.2749    1.7965 H   0  0  0  0  0  0  0  0  0  0  0  0
  1  2  1  0
  2  3  1  0
  2  4  1  0
  2  5  1  0
  5  6  2  0
  5 10  1  0
  6  7  1  0
  7  8  2  0
  7 17  1  0
  8  9  1  0
  8 11  1  0
  9 10  2  0
  9 28  1  0
 10 29  1  0
 11 12  2  0
 12 13  1  0
 12 17  1  0
 13 14  1  0
 13 16  1  0
 13 30  1  0
 14 15  1  0
 14 31  1  0
 14 32  1  0
 15 16  1  0
 15 33  1  0
 15 34  1  0
 16 35  1  0
 16 36  1  0
 17 18  1  0
 18 19  2  0
 18 27  1  0
 19 20  1  0
 19 37  1  0
 20 21  2  0
 20 24  1  0
 21 22  1  0
 21 25  1  0
 22 23  1  0
 22 38  1  0
 23 24  2  0
 24 39  1  0
 25 26  1  0
 25 27  2  0
 27 40  1  0
M  END
>  <group_name>  (1) 
JNS

>  <molecule_index>  (1) 
01581

>  <conformer_index>  (1) 
05

>  <method>  (1) 
b3lyp-d3bj

>  <basis>  (1) 
dzvp

>  <program>  (1) 
psi4

>  <initial_energy>  (1) 
-1083935.9226661047 kilocalorie / mole

>  <final_energy>  (1) 
-1083978.3659052372 kilocalorie / mole

$$$$
