JNS-01596-06
     RDKit          3D

 37 41  0  0  0  0  0  0  0  0999 V2000
   -3.8358    2.3189   -0.0719 F   0  0  0  0  0  0  0  0  0  0  0  0
   -3.5632    1.0344    0.1564 C   0  0  0  0  0  0  0  0  0  0  0  0
   -4.5444    0.1614    0.4636 N   0  0  0  0  0  0  0  0  0  0  0  0
   -4.1021   -1.1094    0.6642 N   0  0  0  0  0  0  0  0  0  0  0  0
   -2.7700   -1.0086    0.4670 C   0  0  0  0  0  0  0  0  0  0  0  0
   -2.3607    0.3337    0.1383 C   0  0  0  0  0  0  0  0  0  0  0  0
   -1.0035    0.6555   -0.1148 C   0  0  0  0  0  0  0  0  0  0  0  0
   -0.0892   -0.3681   -0.0205 C   0  0  0  0  0  0  0  0  0  0  0  0
   -0.4788   -1.7039    0.3329 C   0  0  0  0  0  0  0  0  0  0  0  0
   -1.7917   -2.0361    0.5637 C   0  0  0  0  0  0  0  0  0  0  0  0
    1.2972   -0.0961   -0.2170 N   0  0  0  0  0  0  0  0  0  0  0  0
    2.1995   -0.7751   -1.0354 C   0  0  0  0  0  0  0  0  0  0  0  0
    3.4367   -0.3207   -0.9288 N   0  0  0  0  0  0  0  0  0  0  0  0
    3.3746    0.7100   -0.0093 C   0  0  0  0  0  0  0  0  0  0  0  0
    2.0387    0.8801    0.4466 C   0  0  0  0  0  0  0  0  0  0  0  0
    1.6018    1.7793    1.3109 N   0  0  0  0  0  0  0  0  0  0  0  0
    2.5572    2.5928    1.7886 C   0  0  0  0  0  0  0  0  0  0  0  0
    3.9125    2.5314    1.4287 C   0  0  0  0  0  0  0  0  0  0  0  0
    4.3439    1.5696    0.5068 C   0  0  0  0  0  0  0  0  0  0  0  0
    2.0558    3.6271    2.7742 C   0  0  0  0  0  0  0  0  0  0  0  0
    1.5005    3.0544    3.8681 F   0  0  0  0  0  0  0  0  0  0  0  0
    3.0569    4.4339    3.2105 F   0  0  0  0  0  0  0  0  0  0  0  0
    1.1108    4.4279    2.2241 F   0  0  0  0  0  0  0  0  0  0  0  0
    1.7853   -1.8765   -1.9181 C   0  0  0  0  0  0  0  0  0  0  0  0
    2.7253   -2.3077   -3.0289 C   0  0  0  0  0  0  0  0  0  0  0  0
    2.5464   -3.2022   -1.8370 C   0  0  0  0  0  0  0  0  0  0  0  0
   -5.5315    0.3703    0.5571 H   0  0  0  0  0  0  0  0  0  0  0  0
   -0.6912    1.6659   -0.3535 H   0  0  0  0  0  0  0  0  0  0  0  0
    0.2974   -2.4572    0.4264 H   0  0  0  0  0  0  0  0  0  0  0  0
   -2.0838   -3.0466    0.8329 H   0  0  0  0  0  0  0  0  0  0  0  0
    4.6148    3.2322    1.8644 H   0  0  0  0  0  0  0  0  0  0  0  0
    5.3845    1.4974    0.2045 H   0  0  0  0  0  0  0  0  0  0  0  0
    0.7208   -1.9404   -2.1128 H   0  0  0  0  0  0  0  0  0  0  0  0
    2.2665   -2.5984   -3.9688 H   0  0  0  0  0  0  0  0  0  0  0  0
    3.6544   -1.7538   -3.1061 H   0  0  0  0  0  0  0  0  0  0  0  0
    1.9620   -4.1113   -1.9439 H   0  0  0  0  0  0  0  0  0  0  0  0
    3.3565   -3.2462   -1.1163 H   0  0  0  0  0  0  0  0  0  0  0  0
  1  2  1  0
  2  3  1  0
  2  6  2  0
  3  4  1  0
  3 27  1  0
  4  5  2  0
  5  6  1  0
  5 10  1  0
  6  7  1  0
  7  8  2  0
  7 28  1  0
  8  9  1  0
  8 11  1  0
  9 10  2  0
  9 29  1  0
 10 30  1  0
 11 12  1  0
 11 15  1  0
 12 13  2  0
 12 24  1  0
 13 14  1  0
 14 15  2  0
 14 19  1  0
 15 16  1  0
 16 17  2  0
 17 18  1  0
 17 20  1  0
 18 19  2  0
 18 31  1  0
 19 32  1  0
 20 21  1  0
 20 22  1  0
 20 23  1  0
 24 25  1  0
 24 26  1  0
 24 33  1  0
 25 26  1  0
 25 34  1  0
 25 35  1  0
 26 36  1  0
 26 37  1  0
M  END
>  <group_name>  (1) 
JNS

>  <molecule_index>  (1) 
01596

>  <conformer_index>  (1) 
06

>  <method>  (1) 
b3lyp-d3bj

>  <basis>  (1) 
dzvp

>  <program>  (1) 
psi4

>  <initial_energy>  (1) 
-833155.9467860024 kilocalorie / mole

>  <final_energy>  (1) 
-833195.8237700248 kilocalorie / mole

$$$$
