JNS-01242-08
     RDKit          3D

 41 45  0  0  0  0  0  0  0  0999 V2000
   -1.7478    5.4293   -0.7190 F   0  0  0  0  0  0  0  0  0  0  0  0
   -0.7468    4.5618   -0.4231 C   0  0  0  0  0  0  0  0  0  0  0  0
    0.2304    4.7536   -1.3432 F   0  0  0  0  0  0  0  0  0  0  0  0
   -0.2405    4.9289    0.7759 F   0  0  0  0  0  0  0  0  0  0  0  0
   -1.2310    3.1259   -0.4175 C   0  0  0  0  0  0  0  0  0  0  0  0
   -2.5616    2.8096   -0.7358 C   0  0  0  0  0  0  0  0  0  0  0  0
   -2.9755    1.4718   -0.7419 C   0  0  0  0  0  0  0  0  0  0  0  0
   -2.0141    0.5140   -0.4225 C   0  0  0  0  0  0  0  0  0  0  0  0
   -2.0615   -0.8690   -0.3457 N   0  0  0  0  0  0  0  0  0  0  0  0
   -0.8455   -1.2477   -0.0007 C   0  0  0  0  0  0  0  0  0  0  0  0
   -0.4029   -2.6662    0.1508 C   0  0  2  0  0  0  0  0  0  0  0  0
    0.6960   -3.1079   -0.8599 C   0  0  0  0  0  0  0  0  0  0  0  0
    0.2799   -4.5566   -1.2251 C   0  0  0  0  0  0  0  0  0  0  0  0
   -0.8074   -4.9059   -0.3611 O   0  0  0  0  0  0  0  0  0  0  0  0
   -1.5159   -3.6965   -0.1004 C   0  0  0  0  0  0  0  0  0  0  0  0
    0.0286   -0.1722    0.1706 N   0  0  0  0  0  0  0  0  0  0  0  0
   -0.7070    0.9744   -0.1114 C   0  0  0  0  0  0  0  0  0  0  0  0
   -0.2849    2.2279   -0.1019 N   0  0  0  0  0  0  0  0  0  0  0  0
    1.4088   -0.2108    0.5296 C   0  0  0  0  0  0  0  0  0  0  0  0
    1.7878   -0.7544    1.7687 C   0  0  0  0  0  0  0  0  0  0  0  0
    3.1304   -0.8327    2.1506 C   0  0  0  0  0  0  0  0  0  0  0  0
    4.0848   -0.3255    1.2674 C   0  0  0  0  0  0  0  0  0  0  0  0
    5.4813   -0.2396    1.3609 N   0  0  0  0  0  0  0  0  0  0  0  0
    5.8218    0.3391    0.2587 C   0  0  0  0  0  0  0  0  0  0  0  0
    7.0558    0.6485   -0.1332 O   0  0  0  0  0  0  0  0  0  0  0  0
    4.8066    0.6725   -0.6135 O   0  0  0  0  0  0  0  0  0  0  0  0
    3.6658    0.2366    0.0489 C   0  0  0  0  0  0  0  0  0  0  0  0
    2.3514    0.3134   -0.3680 C   0  0  0  0  0  0  0  0  0  0  0  0
   -3.2579    3.6039   -0.9777 H   0  0  0  0  0  0  0  0  0  0  0  0
   -3.9959    1.1924   -0.9868 H   0  0  0  0  0  0  0  0  0  0  0  0
   -0.0195   -2.8214    1.1635 H   0  0  0  0  0  0  0  0  0  0  0  0
    0.6963   -2.4640   -1.7436 H   0  0  0  0  0  0  0  0  0  0  0  0
    1.6895   -3.0569   -0.4109 H   0  0  0  0  0  0  0  0  0  0  0  0
   -0.0445   -4.6131   -2.2737 H   0  0  0  0  0  0  0  0  0  0  0  0
    1.0743   -5.2894   -1.0654 H   0  0  0  0  0  0  0  0  0  0  0  0
   -2.1643   -3.8598    0.7619 H   0  0  0  0  0  0  0  0  0  0  0  0
   -2.1321   -3.3993   -0.9590 H   0  0  0  0  0  0  0  0  0  0  0  0
    1.0143   -1.1054    2.4442 H   0  0  0  0  0  0  0  0  0  0  0  0
    3.4220   -1.2550    3.1068 H   0  0  0  0  0  0  0  0  0  0  0  0
    7.0111    1.0990   -0.9945 H   0  0  0  0  0  0  0  0  0  0  0  0
    2.0537    0.7542   -1.3125 H   0  0  0  0  0  0  0  0  0  0  0  0
  1  2  1  0
  2  3  1  0
  2  4  1  0
  2  5  1  0
  5  6  2  0
  5 18  1  0
  6  7  1  0
  6 29  1  0
  7  8  2  0
  7 30  1  0
  8  9  1  0
  8 17  1  0
  9 10  2  0
 10 11  1  0
 10 16  1  0
 11 12  1  0
 11 15  1  0
 11 31  1  1
 12 13  1  0
 12 32  1  0
 12 33  1  0
 13 14  1  0
 13 34  1  0
 13 35  1  0
 14 15  1  0
 15 36  1  0
 15 37  1  0
 16 17  1  0
 16 19  1  0
 17 18  2  0
 19 20  2  0
 19 28  1  0
 20 21  1  0
 20 38  1  0
 21 22  2  0
 21 39  1  0
 22 23  1  0
 22 27  1  0
 23 24  2  0
 24 25  1  0
 24 26  1  0
 25 40  1  0
 26 27  1  0
 27 28  2  0
 28 41  1  0
M  END
>  <group_name>  (1) 
JNS

>  <molecule_index>  (1) 
01242

>  <conformer_index>  (1) 
08

>  <method>  (1) 
b3lyp-d3bj

>  <basis>  (1) 
dzvp

>  <program>  (1) 
psi4

>  <initial_energy>  (1) 
-902443.4911202322 kilocalorie / mole

>  <final_energy>  (1) 
-902510.8614525164 kilocalorie / mole

$$$$
