JNS-02239-04
     RDKit          3D

 53 57  0  0  0  0  0  0  0  0999 V2000
   -3.3913    1.1136   -0.6064 C   0  0  0  0  0  0  0  0  0  0  0  0
   -2.0963    0.5076   -0.3511 N   0  0  0  0  0  0  0  0  0  0  0  0
   -0.8811    1.1081   -0.3324 C   0  0  0  0  0  0  0  0  0  0  0  0
    0.0641    0.1117   -0.0646 C   0  0  0  0  0  0  0  0  0  0  0  0
   -0.7243   -1.0701    0.0601 C   0  0  0  0  0  0  0  0  0  0  0  0
   -2.0203   -0.8271   -0.1069 N   0  0  0  0  0  0  0  0  0  0  0  0
    1.5237    0.1456    0.0471 C   0  0  0  0  0  0  0  0  0  0  0  0
    2.3037    1.3201    0.1314 C   0  0  0  0  0  0  0  0  0  0  0  0
    1.7201    2.7171    0.1183 C   0  0  0  0  0  0  0  0  0  0  0  0
    2.7371    3.8413    0.4125 C   0  0  1  0  0  0  0  0  0  0  0  0
    3.0008    4.1125    1.9027 C   0  0  0  0  0  0  0  0  0  0  0  0
    3.7520    2.9710    2.6022 C   0  0  0  0  0  0  0  0  0  0  0  0
    4.9940    2.5699    1.7975 C   0  0  0  0  0  0  0  0  0  0  0  0
    4.6318    2.2998    0.3224 C   0  0  2  0  0  0  0  0  0  0  0  0
    4.0017    3.4919   -0.2511 N   0  0  0  0  0  0  0  0  0  0  0  0
    4.3202    4.0614   -1.4437 C   0  0  0  0  0  0  0  0  0  0  0  0
    3.7269    5.0258   -1.9295 O   0  0  0  0  0  0  0  0  0  0  0  0
    5.4897    3.4708   -2.1983 C   0  0  0  0  0  0  0  0  0  0  0  0
    6.6923    4.1654   -2.3468 C   0  0  0  0  0  0  0  0  0  0  0  0
    7.7103    3.6032   -3.1203 C   0  0  0  0  0  0  0  0  0  0  0  0
    7.5933    2.4250   -3.7448 N   0  0  0  0  0  0  0  0  0  0  0  0
    6.4439    1.7621   -3.6241 C   0  0  0  0  0  0  0  0  0  0  0  0
    5.3793    2.2559   -2.8674 C   0  0  0  0  0  0  0  0  0  0  0  0
    4.2330    1.5532   -2.7720 F   0  0  0  0  0  0  0  0  0  0  0  0
    6.3143    0.4235   -4.3380 C   0  0  0  0  0  0  0  0  0  0  0  0
    6.0553   -0.5723   -3.4532 F   0  0  0  0  0  0  0  0  0  0  0  0
    5.2891    0.4455   -5.2259 F   0  0  0  0  0  0  0  0  0  0  0  0
    7.4287    0.0990   -5.0057 F   0  0  0  0  0  0  0  0  0  0  0  0
    3.6864    1.1204    0.2122 C   0  0  0  0  0  0  0  0  0  0  0  0
    4.2624   -0.0840    0.2432 N   0  0  0  0  0  0  0  0  0  0  0  0
    3.4370   -1.1430    0.1750 C   0  0  0  0  0  0  0  0  0  0  0  0
    4.0747   -2.5061    0.1759 C   0  0  0  0  0  0  0  0  0  0  0  0
    2.1078   -1.0745    0.0800 N   0  0  0  0  0  0  0  0  0  0  0  0
   -3.2574    2.1850   -0.7654 H   0  0  0  0  0  0  0  0  0  0  0  0
   -3.8422    0.6677   -1.4965 H   0  0  0  0  0  0  0  0  0  0  0  0
   -4.0518    0.9523    0.2490 H   0  0  0  0  0  0  0  0  0  0  0  0
   -0.7898    2.1637   -0.5342 H   0  0  0  0  0  0  0  0  0  0  0  0
   -0.3708   -2.0707    0.2654 H   0  0  0  0  0  0  0  0  0  0  0  0
    0.8963    2.7856    0.8378 H   0  0  0  0  0  0  0  0  0  0  0  0
    1.2919    2.9087   -0.8734 H   0  0  0  0  0  0  0  0  0  0  0  0
    2.3803    4.7594   -0.0538 H   0  0  0  0  0  0  0  0  0  0  0  0
    2.0469    4.3119    2.4030 H   0  0  0  0  0  0  0  0  0  0  0  0
    3.5953    5.0318    1.9685 H   0  0  0  0  0  0  0  0  0  0  0  0
    3.0934    2.1031    2.7185 H   0  0  0  0  0  0  0  0  0  0  0  0
    4.0424    3.2793    3.6120 H   0  0  0  0  0  0  0  0  0  0  0  0
    5.4581    1.6694    2.2096 H   0  0  0  0  0  0  0  0  0  0  0  0
    5.7388    3.3745    1.8225 H   0  0  0  0  0  0  0  0  0  0  0  0
    5.5417    2.0587   -0.2249 H   0  0  0  0  0  0  0  0  0  0  0  0
    6.8262    5.1312   -1.8688 H   0  0  0  0  0  0  0  0  0  0  0  0
    8.6593    4.1193   -3.2456 H   0  0  0  0  0  0  0  0  0  0  0  0
    3.3242   -3.2805    0.3395 H   0  0  0  0  0  0  0  0  0  0  0  0
    4.5607   -2.6846   -0.7899 H   0  0  0  0  0  0  0  0  0  0  0  0
    4.8503   -2.5640    0.9442 H   0  0  0  0  0  0  0  0  0  0  0  0
  1  2  1  0
  1 34  1  0
  1 35  1  0
  1 36  1  0
  2  3  1  0
  2  6  1  0
  3  4  2  0
  3 37  1  0
  4  5  1  0
  4  7  1  0
  5  6  2  0
  5 38  1  0
  7  8  1  0
  7 33  2  0
  8  9  1  0
  8 29  2  0
  9 10  1  0
  9 39  1  0
  9 40  1  0
 10 11  1  0
 10 15  1  0
 10 41  1  6
 11 12  1  0
 11 42  1  0
 11 43  1  0
 12 13  1  0
 12 44  1  0
 12 45  1  0
 13 14  1  0
 13 46  1  0
 13 47  1  0
 14 15  1  0
 14 29  1  0
 14 48  1  6
 15 16  1  0
 16 17  2  0
 16 18  1  0
 18 19  2  0
 18 23  1  0
 19 20  1  0
 19 49  1  0
 20 21  2  0
 20 50  1  0
 21 22  1  0
 22 23  2  0
 22 25  1  0
 23 24  1  0
 25 26  1  0
 25 27  1  0
 25 28  1  0
 29 30  1  0
 30 31  2  0
 31 32  1  0
 31 33  1  0
 32 51  1  0
 32 52  1  0
 32 53  1  0
M  END
>  <group_name>  (1) 
JNS

>  <molecule_index>  (1) 
02239

>  <conformer_index>  (1) 
04

>  <method>  (1) 
b3lyp-d3bj

>  <basis>  (1) 
dzvp

>  <program>  (1) 
psi4

>  <initial_energy>  (1) 
-1037788.8994874787 kilocalorie / mole

>  <final_energy>  (1) 
-1037801.9701688286 kilocalorie / mole

$$$$
