JNS-00129-01
     RDKit          3D

 31 33  0  0  0  0  0  0  0  0999 V2000
    0.8146   -1.1951   -0.3841 N   0  0  0  0  0  0  0  0  0  0  0  0
   -0.2725   -0.4052   -0.0254 C   0  0  0  0  0  0  0  0  0  0  0  0
   -0.7696    0.6189   -0.8897 C   0  0  0  0  0  0  0  0  0  0  0  0
   -0.1327    0.9052   -2.1064 N   0  0  0  0  0  0  0  0  0  0  0  0
    1.2543    1.2505   -2.1708 C   0  0  0  0  0  0  0  0  0  0  0  0
    1.9432    1.0220   -3.3584 C   0  0  0  0  0  0  0  0  0  0  0  0
    3.2999    1.3899   -3.4353 C   0  0  0  0  0  0  0  0  0  0  0  0
    3.9458    1.9487   -2.3006 C   0  0  0  0  0  0  0  0  0  0  0  0
    5.2442    2.1689   -2.6842 N   0  0  0  0  0  0  0  0  0  0  0  0
    5.4756    1.8004   -3.9745 N   0  0  0  0  0  0  0  0  0  0  0  0
    4.3251    1.3306   -4.4344 C   0  0  0  0  0  0  0  0  0  0  0  0
    3.2620    2.1681   -1.0934 C   0  0  0  0  0  0  0  0  0  0  0  0
    1.9176    1.8272   -1.0512 C   0  0  0  0  0  0  0  0  0  0  0  0
   -1.8923    1.2831   -0.6375 N   0  0  0  0  0  0  0  0  0  0  0  0
   -2.5876    1.0008    0.4728 C   0  0  0  0  0  0  0  0  0  0  0  0
   -2.1725    0.0631    1.4101 C   0  0  0  0  0  0  0  0  0  0  0  0
   -0.9932   -0.6418    1.1484 C   0  0  0  0  0  0  0  0  0  0  0  0
   -3.8607    1.7938    0.6477 C   0  0  0  0  0  0  0  0  0  0  0  0
   -4.7210    1.6098   -0.3828 F   0  0  0  0  0  0  0  0  0  0  0  0
   -3.6244    3.1269    0.7282 F   0  0  0  0  0  0  0  0  0  0  0  0
   -4.5170    1.4387    1.7838 F   0  0  0  0  0  0  0  0  0  0  0  0
    1.2540   -1.6924    0.3812 H   0  0  0  0  0  0  0  0  0  0  0  0
    1.4914   -0.7792   -1.0120 H   0  0  0  0  0  0  0  0  0  0  0  0
   -0.7245    1.5035   -2.6762 H   0  0  0  0  0  0  0  0  0  0  0  0
    1.4315    0.5592   -4.1977 H   0  0  0  0  0  0  0  0  0  0  0  0
    5.9992    2.5762   -2.1507 H   0  0  0  0  0  0  0  0  0  0  0  0
    4.2619    0.9686   -5.4530 H   0  0  0  0  0  0  0  0  0  0  0  0
    3.7521    2.6044   -0.2272 H   0  0  0  0  0  0  0  0  0  0  0  0
    1.3472    2.0109   -0.1455 H   0  0  0  0  0  0  0  0  0  0  0  0
   -2.7480   -0.1241    2.3091 H   0  0  0  0  0  0  0  0  0  0  0  0
   -0.6509   -1.4086    1.8399 H   0  0  0  0  0  0  0  0  0  0  0  0
  1  2  1  0
  1 22  1  0
  1 23  1  0
  2  3  2  0
  2 17  1  0
  3  4  1  0
  3 14  1  0
  4  5  1  0
  4 24  1  0
  5  6  2  0
  5 13  1  0
  6  7  1  0
  6 25  1  0
  7  8  2  0
  7 11  1  0
  8  9  1  0
  8 12  1  0
  9 10  1  0
  9 26  1  0
 10 11  2  0
 11 27  1  0
 12 13  2  0
 12 28  1  0
 13 29  1  0
 14 15  2  0
 15 16  1  0
 15 18  1  0
 16 17  2  0
 16 30  1  0
 17 31  1  0
 18 19  1  0
 18 20  1  0
 18 21  1  0
M  END
>  <group_name>  (1) 
JNS

>  <molecule_index>  (1) 
00129

>  <conformer_index>  (1) 
01

>  <method>  (1) 
b3lyp-d3bj

>  <basis>  (1) 
dzvp

>  <program>  (1) 
psi4

>  <initial_energy>  (1) 
-674370.9892022592 kilocalorie / mole

>  <final_energy>  (1) 
-674509.7890927885 kilocalorie / mole

$$$$
