JNS-01384-01
     RDKit          3D

 36 39  0  0  0  0  0  0  0  0999 V2000
   -0.5028    0.7531   -1.4337 C   0  0  0  0  0  0  0  0  0  0  0  0
   -0.0506    0.0127   -0.1709 C   0  0  0  0  0  0  0  0  0  0  0  0
    1.4377    0.0263    0.0054 C   0  0  0  0  0  0  0  0  0  0  0  0
    2.2600    0.8662   -0.5926 N   0  0  0  0  0  0  0  0  0  0  0  0
    3.5300    0.5097   -0.1708 C   0  0  0  0  0  0  0  0  0  0  0  0
    3.4570   -0.5979    0.7154 C   0  0  0  0  0  0  0  0  0  0  0  0
    4.4681   -1.2162    1.3028 N   0  0  0  0  0  0  0  0  0  0  0  0
    5.6714   -0.7016    1.0052 C   0  0  0  0  0  0  0  0  0  0  0  0
    5.8861    0.3922    0.1513 C   0  0  0  0  0  0  0  0  0  0  0  0
    4.7944    1.0219   -0.4588 C   0  0  0  0  0  0  0  0  0  0  0  0
    6.8325   -1.4117    1.6704 C   0  0  0  0  0  0  0  0  0  0  0  0
    6.9053   -2.7115    1.2945 F   0  0  0  0  0  0  0  0  0  0  0  0
    6.7285   -1.3937    3.0191 F   0  0  0  0  0  0  0  0  0  0  0  0
    8.0214   -0.8381    1.3529 F   0  0  0  0  0  0  0  0  0  0  0  0
    2.1008   -0.8902    0.8251 N   0  0  0  0  0  0  0  0  0  0  0  0
    1.5361   -1.9381    1.6108 C   0  0  0  0  0  0  0  0  0  0  0  0
    1.9645   -3.2555    1.3842 C   0  0  0  0  0  0  0  0  0  0  0  0
    1.3801   -4.2114    2.1921 C   0  0  0  0  0  0  0  0  0  0  0  0
    0.4157   -3.9395    3.1779 C   0  0  0  0  0  0  0  0  0  0  0  0
    0.0456   -5.1456    3.7926 N   0  0  0  0  0  0  0  0  0  0  0  0
    0.7692   -6.0280    3.1764 C   0  0  0  0  0  0  0  0  0  0  0  0
    0.8079   -7.3439    3.3698 O   0  0  0  0  0  0  0  0  0  0  0  0
    1.6051   -5.5820    2.1984 O   0  0  0  0  0  0  0  0  0  0  0  0
    0.0075   -2.6226    3.3937 C   0  0  0  0  0  0  0  0  0  0  0  0
    0.5905   -1.6274    2.6037 C   0  0  0  0  0  0  0  0  0  0  0  0
   -0.0797    0.2923   -2.3304 H   0  0  0  0  0  0  0  0  0  0  0  0
   -0.1777    1.7954   -1.4132 H   0  0  0  0  0  0  0  0  0  0  0  0
   -1.5939    0.7257   -1.5100 H   0  0  0  0  0  0  0  0  0  0  0  0
   -0.5175    0.4679    0.7116 H   0  0  0  0  0  0  0  0  0  0  0  0
   -0.3947   -1.0274   -0.1831 H   0  0  0  0  0  0  0  0  0  0  0  0
    6.8963    0.7392   -0.0308 H   0  0  0  0  0  0  0  0  0  0  0  0
    4.9251    1.8685   -1.1264 H   0  0  0  0  0  0  0  0  0  0  0  0
    2.7115   -3.4917    0.6353 H   0  0  0  0  0  0  0  0  0  0  0  0
    0.1800   -7.5417    4.0878 H   0  0  0  0  0  0  0  0  0  0  0  0
   -0.7233   -2.3797    4.1584 H   0  0  0  0  0  0  0  0  0  0  0  0
    0.3231   -0.5879    2.7636 H   0  0  0  0  0  0  0  0  0  0  0  0
  1  2  1  0
  1 26  1  0
  1 27  1  0
  1 28  1  0
  2  3  1  0
  2 29  1  0
  2 30  1  0
  3  4  2  0
  3 15  1  0
  4  5  1  0
  5  6  2  0
  5 10  1  0
  6  7  1  0
  6 15  1  0
  7  8  2  0
  8  9  1  0
  8 11  1  0
  9 10  2  0
  9 31  1  0
 10 32  1  0
 11 12  1  0
 11 13  1  0
 11 14  1  0
 15 16  1  0
 16 17  2  0
 16 25  1  0
 17 18  1  0
 17 33  1  0
 18 19  2  0
 18 23  1  0
 19 20  1  0
 19 24  1  0
 20 21  2  0
 21 22  1  0
 21 23  1  0
 22 34  1  0
 24 25  2  0
 24 35  1  0
 25 36  1  0
M  END
>  <group_name>  (1) 
JNS

>  <molecule_index>  (1) 
01384

>  <conformer_index>  (1) 
01

>  <method>  (1) 
b3lyp-d3bj

>  <basis>  (1) 
dzvp

>  <program>  (1) 
psi4

>  <initial_energy>  (1) 
-806659.3362033195 kilocalorie / mole

>  <final_energy>  (1) 
-806720.4578159832 kilocalorie / mole

$$$$
