JNS-01792-07
     RDKit          3D

 40 44  0  0  0  0  0  0  0  0999 V2000
   -0.6039   -0.3759   -0.0508 F   0  0  0  0  0  0  0  0  0  0  0  0
    0.1451    0.7380    0.1379 C   0  0  0  0  0  0  0  0  0  0  0  0
   -0.2047    1.2482    1.3432 F   0  0  0  0  0  0  0  0  0  0  0  0
   -0.2394    1.6396   -0.8024 F   0  0  0  0  0  0  0  0  0  0  0  0
    1.6273    0.4406    0.0585 C   0  0  0  0  0  0  0  0  0  0  0  0
    2.0526   -0.4732    0.9395 N   0  0  0  0  0  0  0  0  0  0  0  0
    3.3484   -0.7443    0.8845 C   0  0  0  0  0  0  0  0  0  0  0  0
    4.3013   -0.1619   -0.0076 C   0  0  0  0  0  0  0  0  0  0  0  0
    5.5670   -0.7632    0.2891 C   0  0  0  0  0  0  0  0  0  0  0  0
    5.3706   -1.6618    1.3186 C   0  0  0  0  0  0  0  0  0  0  0  0
    6.3330   -2.5498    2.0001 C   0  0  0  0  0  0  0  0  0  0  0  0
    7.8081   -2.4760    1.6802 C   0  0  0  0  0  0  0  0  0  0  0  0
    7.3196   -1.9782    3.0170 C   0  0  0  0  0  0  0  0  0  0  0  0
    4.0197   -1.6524    1.6928 N   0  0  0  0  0  0  0  0  0  0  0  0
    3.4161   -2.4172    2.7340 C   0  0  0  0  0  0  0  0  0  0  0  0
    3.9088   -2.3245    4.0475 C   0  0  0  0  0  0  0  0  0  0  0  0
    3.3033   -3.0731    5.0443 C   0  0  0  0  0  0  0  0  0  0  0  0
    2.1988   -3.8897    4.7367 C   0  0  0  0  0  0  0  0  0  0  0  0
    1.7613   -4.5291    5.9059 N   0  0  0  0  0  0  0  0  0  0  0  0
    2.5186   -4.1812    7.0174 C   0  0  0  0  0  0  0  0  0  0  0  0
    2.3469   -4.5938    8.1515 O   0  0  0  0  0  0  0  0  0  0  0  0
    3.5876   -3.1933    6.5209 C   0  0  0  0  0  0  0  0  0  0  0  0
    1.6890   -3.9767    3.4448 C   0  0  0  0  0  0  0  0  0  0  0  0
    2.3181   -3.2319    2.4400 C   0  0  0  0  0  0  0  0  0  0  0  0
    3.8138    0.7878   -0.9133 C   0  0  0  0  0  0  0  0  0  0  0  0
    2.4505    1.0911   -0.8755 C   0  0  0  0  0  0  0  0  0  0  0  0
    6.5059   -0.5852   -0.2172 H   0  0  0  0  0  0  0  0  0  0  0  0
    5.9424   -3.5342    2.2435 H   0  0  0  0  0  0  0  0  0  0  0  0
    8.3542   -3.4135    1.6471 H   0  0  0  0  0  0  0  0  0  0  0  0
    8.1387   -1.7387    0.9563 H   0  0  0  0  0  0  0  0  0  0  0  0
    7.5276   -2.5712    3.9031 H   0  0  0  0  0  0  0  0  0  0  0  0
    7.2939   -0.9040    3.1741 H   0  0  0  0  0  0  0  0  0  0  0  0
    4.7462   -1.6695    4.2661 H   0  0  0  0  0  0  0  0  0  0  0  0
    0.9741   -5.1625    5.9722 H   0  0  0  0  0  0  0  0  0  0  0  0
    4.5809   -3.5932    6.7478 H   0  0  0  0  0  0  0  0  0  0  0  0
    3.4836   -2.2492    7.0651 H   0  0  0  0  0  0  0  0  0  0  0  0
    0.8300   -4.5995    3.2119 H   0  0  0  0  0  0  0  0  0  0  0  0
    1.9446   -3.2703    1.4228 H   0  0  0  0  0  0  0  0  0  0  0  0
    4.4698    1.2780   -1.6277 H   0  0  0  0  0  0  0  0  0  0  0  0
    2.0233    1.8175   -1.5568 H   0  0  0  0  0  0  0  0  0  0  0  0
  1  2  1  0
  2  3  1  0
  2  4  1  0
  2  5  1  0
  5  6  2  0
  5 26  1  0
  6  7  1  0
  7  8  2  0
  7 14  1  0
  8  9  1  0
  8 25  1  0
  9 10  2  0
  9 27  1  0
 10 11  1  0
 10 14  1  0
 11 12  1  0
 11 13  1  0
 11 28  1  0
 12 13  1  0
 12 29  1  0
 12 30  1  0
 13 31  1  0
 13 32  1  0
 14 15  1  0
 15 16  2  0
 15 24  1  0
 16 17  1  0
 16 33  1  0
 17 18  2  0
 17 22  1  0
 18 19  1  0
 18 23  1  0
 19 20  1  0
 19 34  1  0
 20 21  2  0
 20 22  1  0
 22 35  1  0
 22 36  1  0
 23 24  2  0
 23 37  1  0
 24 38  1  0
 25 26  2  0
 25 39  1  0
 26 40  1  0
M  END
>  <group_name>  (1) 
JNS

>  <molecule_index>  (1) 
01792

>  <conformer_index>  (1) 
07

>  <method>  (1) 
b3lyp-d3bj

>  <basis>  (1) 
dzvp

>  <program>  (1) 
psi4

>  <initial_energy>  (1) 
-797976.659515299 kilocalorie / mole

>  <final_energy>  (1) 
-798015.7465722404 kilocalorie / mole

$$$$
