JNS-01594-03
     RDKit          3D

 39 42  0  0  0  0  0  0  0  0999 V2000
   -0.4559   -1.7107    0.8049 C   0  0  0  0  0  0  0  0  0  0  0  0
   -0.0576   -0.3155    0.3081 C   0  0  0  0  0  0  0  0  0  0  0  0
   -0.6280   -0.0300   -1.0984 C   0  0  0  0  0  0  0  0  0  0  0  0
    1.4369   -0.1532    0.2893 C   0  0  0  0  0  0  0  0  0  0  0  0
    2.3037   -1.1448    0.2224 N   0  0  0  0  0  0  0  0  0  0  0  0
    3.5504   -0.5483    0.1261 C   0  0  0  0  0  0  0  0  0  0  0  0
    3.4165    0.8657    0.1347 C   0  0  0  0  0  0  0  0  0  0  0  0
    4.3870    1.7599    0.0512 N   0  0  0  0  0  0  0  0  0  0  0  0
    5.6145    1.2262   -0.0487 C   0  0  0  0  0  0  0  0  0  0  0  0
    5.8904   -0.1506   -0.0648 C   0  0  0  0  0  0  0  0  0  0  0  0
    4.8390   -1.0713    0.0250 C   0  0  0  0  0  0  0  0  0  0  0  0
    6.7287    2.2476   -0.1523 C   0  0  0  0  0  0  0  0  0  0  0  0
    6.7718    3.0565    0.9316 F   0  0  0  0  0  0  0  0  0  0  0  0
    7.9458    1.6556   -0.2584 F   0  0  0  0  0  0  0  0  0  0  0  0
    6.5778    3.0446   -1.2375 F   0  0  0  0  0  0  0  0  0  0  0  0
    2.0501    1.1021    0.2474 N   0  0  0  0  0  0  0  0  0  0  0  0
    1.4378    2.3884    0.3266 C   0  0  0  0  0  0  0  0  0  0  0  0
    1.5337    3.2602   -0.7480 C   0  0  0  0  0  0  0  0  0  0  0  0
    0.9335    4.5256   -0.6266 C   0  0  0  0  0  0  0  0  0  0  0  0
    0.2441    4.8748    0.5659 C   0  0  0  0  0  0  0  0  0  0  0  0
   -0.2318    6.1390    0.3727 N   0  0  0  0  0  0  0  0  0  0  0  0
    0.1028    6.6354   -0.8508 N   0  0  0  0  0  0  0  0  0  0  0  0
    0.7961    5.6851   -1.4582 C   0  0  0  0  0  0  0  0  0  0  0  0
    0.1670    3.9835    1.6454 C   0  0  0  0  0  0  0  0  0  0  0  0
   -0.7485    4.5025    3.2408 Br  0  0  0  0  0  0  0  0  0  0  0  0
    0.7758    2.7473    1.5280 C   0  0  0  0  0  0  0  0  0  0  0  0
   -0.0649   -1.9023    1.8081 H   0  0  0  0  0  0  0  0  0  0  0  0
   -1.5468   -1.7937    0.8343 H   0  0  0  0  0  0  0  0  0  0  0  0
   -0.0630   -2.4856    0.1423 H   0  0  0  0  0  0  0  0  0  0  0  0
   -0.4750    0.4325    0.9911 H   0  0  0  0  0  0  0  0  0  0  0  0
   -0.3809    0.9803   -1.4372 H   0  0  0  0  0  0  0  0  0  0  0  0
   -1.7184   -0.1257   -1.0851 H   0  0  0  0  0  0  0  0  0  0  0  0
   -0.2282   -0.7460   -1.8234 H   0  0  0  0  0  0  0  0  0  0  0  0
    6.9159   -0.4903   -0.1488 H   0  0  0  0  0  0  0  0  0  0  0  0
    5.0176   -2.1425    0.0140 H   0  0  0  0  0  0  0  0  0  0  0  0
    2.0665    2.9648   -1.6459 H   0  0  0  0  0  0  0  0  0  0  0  0
   -0.7559    6.7125    1.0200 H   0  0  0  0  0  0  0  0  0  0  0  0
    1.1768    5.8498   -2.4584 H   0  0  0  0  0  0  0  0  0  0  0  0
    0.7652    2.0496    2.3585 H   0  0  0  0  0  0  0  0  0  0  0  0
  1  2  1  0
  1 27  1  0
  1 28  1  0
  1 29  1  0
  2  3  1  0
  2  4  1  0
  2 30  1  0
  3 31  1  0
  3 32  1  0
  3 33  1  0
  4  5  2  0
  4 16  1  0
  5  6  1  0
  6  7  2  0
  6 11  1  0
  7  8  1  0
  7 16  1  0
  8  9  2  0
  9 10  1  0
  9 12  1  0
 10 11  2  0
 10 34  1  0
 11 35  1  0
 12 13  1  0
 12 14  1  0
 12 15  1  0
 16 17  1  0
 17 18  2  0
 17 26  1  0
 18 19  1  0
 18 36  1  0
 19 20  2  0
 19 23  1  0
 20 21  1  0
 20 24  1  0
 21 22  1  0
 21 37  1  0
 22 23  2  0
 23 38  1  0
 24 25  1  0
 24 26  2  0
 26 39  1  0
M  END
>  <group_name>  (1) 
JNS

>  <molecule_index>  (1) 
01594

>  <conformer_index>  (1) 
03

>  <method>  (1) 
b3lyp-d3bj

>  <basis>  (1) 
dzvp

>  <program>  (1) 
psi4

>  <initial_energy>  (1) 
-2386296.146266075 kilocalorie / mole

>  <final_energy>  (1) 
-2386342.022391135 kilocalorie / mole

$$$$
