JNS-01564-09
     RDKit          3D

 45 49  0  0  0  0  0  0  0  0999 V2000
   -2.5409   -0.3521   -2.6224 C   0  0  0  0  0  0  0  0  0  0  0  0
   -1.8642   -0.1798   -1.2852 C   0  0  0  0  0  0  0  0  0  0  0  0
   -2.6025   -0.0623   -0.1050 C   0  0  0  0  0  0  0  0  0  0  0  0
   -3.9971   -0.0737    0.0498 N   0  0  0  0  0  0  0  0  0  0  0  0
   -4.3846    0.0437    1.3792 C   0  0  0  0  0  0  0  0  0  0  0  0
   -5.5340    0.0605    1.7849 O   0  0  0  0  0  0  0  0  0  0  0  0
   -3.0876    0.1449    2.1995 C   0  0  0  0  0  0  0  0  0  0  0  0
   -1.9989    0.0741    1.1565 C   0  0  0  0  0  0  0  0  0  0  0  0
   -0.6188    0.1077    1.2634 C   0  0  0  0  0  0  0  0  0  0  0  0
    0.1665    0.0182    0.0940 C   0  0  0  0  0  0  0  0  0  0  0  0
   -0.4712   -0.1366   -1.1522 C   0  0  0  0  0  0  0  0  0  0  0  0
    1.6293    0.0167    0.1330 C   0  0  0  0  0  0  0  0  0  0  0  0
    2.5362   -0.7498   -0.6382 C   0  0  0  0  0  0  0  0  0  0  0  0
    2.3057   -1.6447   -1.6240 N   0  0  0  0  0  0  0  0  0  0  0  0
    3.3848   -2.1954   -2.1495 C   0  0  0  0  0  0  0  0  0  0  0  0
    4.7264   -1.9210   -1.7485 C   0  0  0  0  0  0  0  0  0  0  0  0
    4.9683   -1.0108   -0.7384 C   0  0  0  0  0  0  0  0  0  0  0  0
    3.8379   -0.3927   -0.1559 C   0  0  0  0  0  0  0  0  0  0  0  0
    3.7608    0.5319    0.8198 N   0  0  0  0  0  0  0  0  0  0  0  0
    2.4260    0.7566    0.9597 N   0  0  0  0  0  0  0  0  0  0  0  0
    2.0157    1.7922    1.9084 C   0  0  0  0  0  0  0  0  0  0  0  0
    3.0513    2.8950    2.2248 C   0  0  0  0  0  0  0  0  0  0  0  0
    1.8823    3.9195    2.2214 C   0  0  0  0  0  0  0  0  0  0  0  0
    1.0301    2.8901    1.4275 C   0  0  0  0  0  0  0  0  0  0  0  0
    3.1063   -3.2049   -3.2483 C   0  0  0  0  0  0  0  0  0  0  0  0
    4.2502   -3.6147   -3.8562 F   0  0  0  0  0  0  0  0  0  0  0  0
    2.4956   -4.3147   -2.7667 F   0  0  0  0  0  0  0  0  0  0  0  0
    2.3039   -2.6964   -4.2113 F   0  0  0  0  0  0  0  0  0  0  0  0
   -3.1866    0.5023   -2.8601 H   0  0  0  0  0  0  0  0  0  0  0  0
   -1.8057   -0.4470   -3.4245 H   0  0  0  0  0  0  0  0  0  0  0  0
   -3.1661   -1.2531   -2.6396 H   0  0  0  0  0  0  0  0  0  0  0  0
   -4.6740   -0.1688   -0.6968 H   0  0  0  0  0  0  0  0  0  0  0  0
   -3.0947    1.0804    2.7679 H   0  0  0  0  0  0  0  0  0  0  0  0
   -3.0566   -0.6760    2.9229 H   0  0  0  0  0  0  0  0  0  0  0  0
   -0.1505    0.1729    2.2404 H   0  0  0  0  0  0  0  0  0  0  0  0
    0.1429   -0.2380   -2.0409 H   0  0  0  0  0  0  0  0  0  0  0  0
    5.5444   -2.4298   -2.2452 H   0  0  0  0  0  0  0  0  0  0  0  0
    5.9760   -0.7757   -0.4080 H   0  0  0  0  0  0  0  0  0  0  0  0
    1.6660    1.3123    2.8272 H   0  0  0  0  0  0  0  0  0  0  0  0
    3.7271    3.0409    1.3812 H   0  0  0  0  0  0  0  0  0  0  0  0
    3.6410    2.7710    3.1350 H   0  0  0  0  0  0  0  0  0  0  0  0
    2.0687    4.8833    1.7425 H   0  0  0  0  0  0  0  0  0  0  0  0
    1.4806    4.0959    3.2232 H   0  0  0  0  0  0  0  0  0  0  0  0
   -0.0224    2.7724    1.6894 H   0  0  0  0  0  0  0  0  0  0  0  0
    1.1127    3.0357    0.3471 H   0  0  0  0  0  0  0  0  0  0  0  0
  1  2  1  0
  1 29  1  0
  1 30  1  0
  1 31  1  0
  2  3  2  0
  2 11  1  0
  3  4  1  0
  3  8  1  0
  4  5  1  0
  4 32  1  0
  5  6  2  0
  5  7  1  0
  7  8  1  0
  7 33  1  0
  7 34  1  0
  8  9  2  0
  9 10  1  0
  9 35  1  0
 10 11  2  0
 10 12  1  0
 11 36  1  0
 12 13  2  0
 12 20  1  0
 13 14  1  0
 13 18  1  0
 14 15  2  0
 15 16  1  0
 15 25  1  0
 16 17  2  0
 16 37  1  0
 17 18  1  0
 17 38  1  0
 18 19  2  0
 19 20  1  0
 20 21  1  0
 21 22  1  0
 21 24  1  0
 21 39  1  0
 22 23  1  0
 22 40  1  0
 22 41  1  0
 23 24  1  0
 23 42  1  0
 23 43  1  0
 24 44  1  0
 24 45  1  0
 25 26  1  0
 25 27  1  0
 25 28  1  0
M  END
>  <group_name>  (1) 
JNS

>  <molecule_index>  (1) 
01564

>  <conformer_index>  (1) 
09

>  <method>  (1) 
b3lyp-d3bj

>  <basis>  (1) 
dzvp

>  <program>  (1) 
psi4

>  <initial_energy>  (1) 
-857370.800559554 kilocalorie / mole

>  <final_energy>  (1) 
-857426.0103599719 kilocalorie / mole

$$$$
