JNS-02158-06
     RDKit          3D

 42 45  0  0  0  0  0  0  0  0999 V2000
   -1.3661    2.8434    1.5163 C   0  0  0  0  0  0  0  0  0  0  0  0
   -1.5758    2.1018    0.1836 C   0  0  2  0  0  0  0  0  0  0  0  0
   -0.3350    1.4019   -0.2593 N   0  0  0  0  0  0  0  0  0  0  0  0
   -0.0485    1.3417   -1.7056 C   0  0  0  0  0  0  0  0  0  0  0  0
    0.0546    2.7290   -2.3493 C   0  0  0  0  0  0  0  0  0  0  0  0
   -1.1864    3.4529   -1.9534 C   0  0  0  0  0  0  0  0  0  0  0  0
   -1.9493    3.1032   -0.8708 C   0  0  0  0  0  0  0  0  0  0  0  0
   -3.0645    3.9032   -0.8278 N   0  0  0  0  0  0  0  0  0  0  0  0
   -3.0460    4.7252   -1.8313 N   0  0  0  0  0  0  0  0  0  0  0  0
   -1.8945    4.4690   -2.5469 N   0  0  0  0  0  0  0  0  0  0  0  0
   -1.5551    5.2409   -3.6785 C   0  0  0  0  0  0  0  0  0  0  0  0
   -2.5277    5.9651   -4.2345 N   0  0  0  0  0  0  0  0  0  0  0  0
   -2.1800    6.7071   -5.2875 C   0  0  0  0  0  0  0  0  0  0  0  0
   -0.8743    6.6936   -5.7733 C   0  0  0  0  0  0  0  0  0  0  0  0
   -0.5286    7.4394   -6.8414 F   0  0  0  0  0  0  0  0  0  0  0  0
    0.0633    5.8892   -5.1363 C   0  0  0  0  0  0  0  0  0  0  0  0
   -0.2790    5.1589   -4.0696 N   0  0  0  0  0  0  0  0  0  0  0  0
    0.1696    0.4476    0.5833 C   0  0  0  0  0  0  0  0  0  0  0  0
   -0.3896    0.0733    1.6135 O   0  0  0  0  0  0  0  0  0  0  0  0
    1.5185   -0.1567    0.2556 C   0  0  0  0  0  0  0  0  0  0  0  0
    1.7100   -1.5298    0.4446 C   0  0  0  0  0  0  0  0  0  0  0  0
    2.9717   -2.0848    0.2318 C   0  0  0  0  0  0  0  0  0  0  0  0
    4.0389   -1.3613   -0.1313 N   0  0  0  0  0  0  0  0  0  0  0  0
    3.8790   -0.0494   -0.2894 C   0  0  0  0  0  0  0  0  0  0  0  0
    2.6451    0.5810   -0.1039 C   0  0  0  0  0  0  0  0  0  0  0  0
    2.5543    1.9151   -0.2824 F   0  0  0  0  0  0  0  0  0  0  0  0
    5.0950    0.7707   -0.6982 C   0  0  0  0  0  0  0  0  0  0  0  0
    5.3626    1.7363    0.2146 F   0  0  0  0  0  0  0  0  0  0  0  0
    4.8743    1.3957   -1.8859 F   0  0  0  0  0  0  0  0  0  0  0  0
    6.1906    0.0150   -0.8327 F   0  0  0  0  0  0  0  0  0  0  0  0
   -2.2674    3.4209    1.7360 H   0  0  0  0  0  0  0  0  0  0  0  0
   -1.1787    2.1483    2.3331 H   0  0  0  0  0  0  0  0  0  0  0  0
   -0.5249    3.5377    1.4256 H   0  0  0  0  0  0  0  0  0  0  0  0
   -2.3767    1.3623    0.3095 H   0  0  0  0  0  0  0  0  0  0  0  0
    0.8719    0.7847   -1.8653 H   0  0  0  0  0  0  0  0  0  0  0  0
   -0.8539    0.7809   -2.2000 H   0  0  0  0  0  0  0  0  0  0  0  0
    0.1358    2.6267   -3.4338 H   0  0  0  0  0  0  0  0  0  0  0  0
    0.9495    3.2558   -2.0054 H   0  0  0  0  0  0  0  0  0  0  0  0
   -2.9496    7.3152   -5.7596 H   0  0  0  0  0  0  0  0  0  0  0  0
    1.0939    5.8392   -5.4819 H   0  0  0  0  0  0  0  0  0  0  0  0
    0.8742   -2.1425    0.7675 H   0  0  0  0  0  0  0  0  0  0  0  0
    3.1378   -3.1515    0.3616 H   0  0  0  0  0  0  0  0  0  0  0  0
  1  2  1  0
  1 31  1  0
  1 32  1  0
  1 33  1  0
  2  3  1  0
  2  7  1  0
  2 34  1  1
  3  4  1  0
  3 18  1  0
  4  5  1  0
  4 35  1  0
  4 36  1  0
  5  6  1  0
  5 37  1  0
  5 38  1  0
  6  7  2  0
  6 10  1  0
  7  8  1  0
  8  9  2  0
  9 10  1  0
 10 11  1  0
 11 12  2  0
 11 17  1  0
 12 13  1  0
 13 14  2  0
 13 39  1  0
 14 15  1  0
 14 16  1  0
 16 17  2  0
 16 40  1  0
 18 19  2  0
 18 20  1  0
 20 21  2  0
 20 25  1  0
 21 22  1  0
 21 41  1  0
 22 23  2  0
 22 42  1  0
 23 24  1  0
 24 25  2  0
 24 27  1  0
 25 26  1  0
 27 28  1  0
 27 29  1  0
 27 30  1  0
M  END
>  <group_name>  (1) 
JNS

>  <molecule_index>  (1) 
02158

>  <conformer_index>  (1) 
06

>  <method>  (1) 
b3lyp-d3bj

>  <basis>  (1) 
dzvp

>  <program>  (1) 
psi4

>  <initial_energy>  (1) 
-1012128.6012025129 kilocalorie / mole

>  <final_energy>  (1) 
-1012179.2486950913 kilocalorie / mole

$$$$
