JNS-01948-03
     RDKit          3D

 33 34  0  0  0  0  0  0  0  0999 V2000
    0.0226    1.8172   -0.3644 C   0  0  0  0  0  0  0  0  0  0  0  0
    0.7976    0.7023   -0.8412 O   0  0  0  0  0  0  0  0  0  0  0  0
    1.9645    0.4554   -0.2048 C   0  0  0  0  0  0  0  0  0  0  0  0
    2.3370    1.2255    0.8062 N   0  0  0  0  0  0  0  0  0  0  0  0
    3.5081    0.9251    1.3956 C   0  0  0  0  0  0  0  0  0  0  0  0
    4.3306   -0.1185    1.0156 C   0  0  0  0  0  0  0  0  0  0  0  0
    3.9280   -0.9377   -0.0658 C   0  0  0  0  0  0  0  0  0  0  0  0
    4.8162   -2.0917   -0.4814 C   0  0  0  0  0  0  0  0  0  0  0  0
    4.4125   -2.8553   -1.7455 C   0  0  2  0  0  0  0  0  0  0  0  0
    5.3294   -4.0807   -1.9985 C   0  0  0  0  0  0  0  0  0  0  0  0
    5.5882   -4.0436   -3.5172 C   0  0  0  0  0  0  0  0  0  0  0  0
    5.6101   -2.6176   -3.8838 N   0  0  0  0  0  0  0  0  0  0  0  0
    4.5452   -2.0144   -3.0605 C   0  0  0  0  0  0  0  0  0  0  0  0
    2.7225   -0.6377   -0.6817 C   0  0  0  0  0  0  0  0  0  0  0  0
    3.8801    1.8464    2.5415 C   0  0  0  0  0  0  0  0  0  0  0  0
    5.0549    1.4847    3.1174 F   0  0  0  0  0  0  0  0  0  0  0  0
    4.0174    3.1275    2.1260 F   0  0  0  0  0  0  0  0  0  0  0  0
    2.9396    1.8394    3.5141 F   0  0  0  0  0  0  0  0  0  0  0  0
    0.5878    2.7483   -0.4551 H   0  0  0  0  0  0  0  0  0  0  0  0
   -0.8618    1.8412   -1.0015 H   0  0  0  0  0  0  0  0  0  0  0  0
   -0.2601    1.6730    0.6816 H   0  0  0  0  0  0  0  0  0  0  0  0
    5.2639   -0.3040    1.5359 H   0  0  0  0  0  0  0  0  0  0  0  0
    4.8739   -2.7907    0.3637 H   0  0  0  0  0  0  0  0  0  0  0  0
    5.8375   -1.7068   -0.6096 H   0  0  0  0  0  0  0  0  0  0  0  0
    3.3796   -3.2018   -1.6331 H   0  0  0  0  0  0  0  0  0  0  0  0
    4.8794   -5.0180   -1.6569 H   0  0  0  0  0  0  0  0  0  0  0  0
    6.2792   -3.9588   -1.4627 H   0  0  0  0  0  0  0  0  0  0  0  0
    6.5173   -4.5359   -3.8180 H   0  0  0  0  0  0  0  0  0  0  0  0
    4.7654   -4.5274   -4.0583 H   0  0  0  0  0  0  0  0  0  0  0  0
    6.5057   -2.2285   -3.5912 H   0  0  0  0  0  0  0  0  0  0  0  0
    3.6075   -2.0508   -3.6266 H   0  0  0  0  0  0  0  0  0  0  0  0
    4.7658   -0.9603   -2.8697 H   0  0  0  0  0  0  0  0  0  0  0  0
    2.3369   -1.2062   -1.5195 H   0  0  0  0  0  0  0  0  0  0  0  0
  1  2  1  0
  1 19  1  0
  1 20  1  0
  1 21  1  0
  2  3  1  0
  3  4  2  0
  3 14  1  0
  4  5  1  0
  5  6  2  0
  5 15  1  0
  6  7  1  0
  6 22  1  0
  7  8  1  0
  7 14  2  0
  8  9  1  0
  8 23  1  0
  8 24  1  0
  9 10  1  0
  9 13  1  0
  9 25  1  1
 10 11  1  0
 10 26  1  0
 10 27  1  0
 11 12  1  0
 11 28  1  0
 11 29  1  0
 12 13  1  0
 12 30  1  0
 13 31  1  0
 13 32  1  0
 14 33  1  0
 15 16  1  0
 15 17  1  0
 15 18  1  0
M  END
>  <group_name>  (1) 
JNS

>  <molecule_index>  (1) 
01948

>  <conformer_index>  (1) 
03

>  <method>  (1) 
b3lyp-d3bj

>  <basis>  (1) 
dzvp

>  <program>  (1) 
psi4

>  <initial_energy>  (1) 
-596546.2681223731 kilocalorie / mole

>  <final_energy>  (1) 
-596613.6625939412 kilocalorie / mole

$$$$
