JNS-01494-08
     RDKit          3D

 42 45  0  0  0  0  0  0  0  0999 V2000
   -1.8246   -0.0988    1.5393 C   0  0  0  0  0  0  0  0  0  0  0  0
   -0.3015   -0.1170    1.3744 C   0  0  0  0  0  0  0  0  0  0  0  0
    0.1623   -0.3399   -0.0885 C   0  0  2  0  0  0  0  0  0  0  0  0
   -0.2355   -1.7162   -0.6381 C   0  0  0  0  0  0  0  0  0  0  0  0
    1.6498   -0.1455   -0.1645 C   0  0  0  0  0  0  0  0  0  0  0  0
    2.5433   -1.1163   -0.1385 N   0  0  0  0  0  0  0  0  0  0  0  0
    3.7775   -0.4881   -0.1346 C   0  0  0  0  0  0  0  0  0  0  0  0
    3.6069    0.9228   -0.1585 C   0  0  0  0  0  0  0  0  0  0  0  0
    4.5587    1.8412   -0.1593 N   0  0  0  0  0  0  0  0  0  0  0  0
    5.8030    1.3387   -0.1360 C   0  0  0  0  0  0  0  0  0  0  0  0
    6.1143   -0.0305   -0.1117 C   0  0  0  0  0  0  0  0  0  0  0  0
    5.0829   -0.9777   -0.1114 C   0  0  0  0  0  0  0  0  0  0  0  0
    6.8964    2.3871   -0.1275 C   0  0  0  0  0  0  0  0  0  0  0  0
    6.8224    3.1790    0.9698 F   0  0  0  0  0  0  0  0  0  0  0  0
    8.1327    1.8250   -0.1296 F   0  0  0  0  0  0  0  0  0  0  0  0
    6.8265    3.1991   -1.2079 F   0  0  0  0  0  0  0  0  0  0  0  0
    2.2315    1.1235   -0.1831 N   0  0  0  0  0  0  0  0  0  0  0  0
    1.5756    2.3920   -0.2332 C   0  0  0  0  0  0  0  0  0  0  0  0
    1.6636    3.2485    0.8539 C   0  0  0  0  0  0  0  0  0  0  0  0
    1.0185    4.4950    0.7665 C   0  0  0  0  0  0  0  0  0  0  0  0
    0.2996    4.8365   -0.4108 C   0  0  0  0  0  0  0  0  0  0  0  0
   -0.2097    6.0868   -0.1812 N   0  0  0  0  0  0  0  0  0  0  0  0
    0.1308    6.5729    1.0459 N   0  0  0  0  0  0  0  0  0  0  0  0
    0.8630    5.6326    1.6228 C   0  0  0  0  0  0  0  0  0  0  0  0
    0.2201    3.9708   -1.5153 C   0  0  0  0  0  0  0  0  0  0  0  0
    0.8747    2.7529   -1.4110 C   0  0  0  0  0  0  0  0  0  0  0  0
   -2.2801    0.6645    0.8978 H   0  0  0  0  0  0  0  0  0  0  0  0
   -2.2769   -1.0630    1.2895 H   0  0  0  0  0  0  0  0  0  0  0  0
   -2.0952    0.1327    2.5746 H   0  0  0  0  0  0  0  0  0  0  0  0
    0.1399   -0.9015    2.0005 H   0  0  0  0  0  0  0  0  0  0  0  0
    0.1042    0.8360    1.7313 H   0  0  0  0  0  0  0  0  0  0  0  0
   -0.3128    0.4356   -0.7004 H   0  0  0  0  0  0  0  0  0  0  0  0
    0.1351   -1.8514   -1.6581 H   0  0  0  0  0  0  0  0  0  0  0  0
    0.1879   -2.5154   -0.0246 H   0  0  0  0  0  0  0  0  0  0  0  0
   -1.3232   -1.8218   -0.6536 H   0  0  0  0  0  0  0  0  0  0  0  0
    7.1515   -0.3438   -0.0925 H   0  0  0  0  0  0  0  0  0  0  0  0
    5.2889   -2.0439   -0.0925 H   0  0  0  0  0  0  0  0  0  0  0  0
    2.2243    2.9567    1.7365 H   0  0  0  0  0  0  0  0  0  0  0  0
   -0.7621    6.6657   -0.7982 H   0  0  0  0  0  0  0  0  0  0  0  0
    1.2558    5.7920    2.6192 H   0  0  0  0  0  0  0  0  0  0  0  0
   -0.3148    4.2419   -2.4209 H   0  0  0  0  0  0  0  0  0  0  0  0
    0.8685    2.0586   -2.2461 H   0  0  0  0  0  0  0  0  0  0  0  0
  1  2  1  0
  1 27  1  0
  1 28  1  0
  1 29  1  0
  2  3  1  0
  2 30  1  0
  2 31  1  0
  3  4  1  0
  3  5  1  0
  3 32  1  6
  4 33  1  0
  4 34  1  0
  4 35  1  0
  5  6  2  0
  5 17  1  0
  6  7  1  0
  7  8  2  0
  7 12  1  0
  8  9  1  0
  8 17  1  0
  9 10  2  0
 10 11  1  0
 10 13  1  0
 11 12  2  0
 11 36  1  0
 12 37  1  0
 13 14  1  0
 13 15  1  0
 13 16  1  0
 17 18  1  0
 18 19  2  0
 18 26  1  0
 19 20  1  0
 19 38  1  0
 20 21  2  0
 20 24  1  0
 21 22  1  0
 21 25  1  0
 22 23  1  0
 22 39  1  0
 23 24  2  0
 24 40  1  0
 25 26  2  0
 25 41  1  0
 26 42  1  0
M  END
>  <group_name>  (1) 
JNS

>  <molecule_index>  (1) 
01494

>  <conformer_index>  (1) 
08

>  <method>  (1) 
b3lyp-d3bj

>  <basis>  (1) 
dzvp

>  <program>  (1) 
psi4

>  <initial_energy>  (1) 
-796335.4610612222 kilocalorie / mole

>  <final_energy>  (1) 
-796377.0511246624 kilocalorie / mole

$$$$
