JNS-01494-04
     RDKit          3D

 42 45  0  0  0  0  0  0  0  0999 V2000
   -0.3421   -2.4797    1.1674 C   0  0  0  0  0  0  0  0  0  0  0  0
   -0.3550   -1.1285    1.8934 C   0  0  0  0  0  0  0  0  0  0  0  0
    0.0216    0.1043    1.0426 C   0  0  2  0  0  0  0  0  0  0  0  0
   -0.7703    0.1839   -0.2810 C   0  0  0  0  0  0  0  0  0  0  0  0
    1.5002    0.1907    0.7751 C   0  0  0  0  0  0  0  0  0  0  0  0
    2.3588   -0.8073    0.8722 N   0  0  0  0  0  0  0  0  0  0  0  0
    3.5830   -0.2918    0.4815 C   0  0  0  0  0  0  0  0  0  0  0  0
    3.4458    1.0792    0.1365 C   0  0  0  0  0  0  0  0  0  0  0  0
    4.3991    1.8944   -0.2832 N   0  0  0  0  0  0  0  0  0  0  0  0
    5.6081    1.3193   -0.3771 C   0  0  0  0  0  0  0  0  0  0  0  0
    5.8838   -0.0227   -0.0683 C   0  0  0  0  0  0  0  0  0  0  0  0
    4.8519   -0.8594    0.3743 C   0  0  0  0  0  0  0  0  0  0  0  0
    6.7015    2.2478   -0.8642 C   0  0  0  0  0  0  0  0  0  0  0  0
    6.8601    3.3138   -0.0451 F   0  0  0  0  0  0  0  0  0  0  0  0
    7.9022    1.6174   -0.9362 F   0  0  0  0  0  0  0  0  0  0  0  0
    6.4330    2.7332   -2.1002 F   0  0  0  0  0  0  0  0  0  0  0  0
    2.1019    1.3741    0.3367 N   0  0  0  0  0  0  0  0  0  0  0  0
    1.5071    2.6632    0.1707 C   0  0  0  0  0  0  0  0  0  0  0  0
    1.4287    3.2198   -1.0971 C   0  0  0  0  0  0  0  0  0  0  0  0
    0.8507    4.4954   -1.2237 C   0  0  0  0  0  0  0  0  0  0  0  0
    0.3647    5.1679   -0.0699 C   0  0  0  0  0  0  0  0  0  0  0  0
   -0.1378    6.3587   -0.5224 N   0  0  0  0  0  0  0  0  0  0  0  0
   -0.0072    6.5023   -1.8716 N   0  0  0  0  0  0  0  0  0  0  0  0
    0.5807    5.3973   -2.3032 C   0  0  0  0  0  0  0  0  0  0  0  0
    0.4576    4.6075    1.2156 C   0  0  0  0  0  0  0  0  0  0  0  0
    1.0432    3.3546    1.3175 C   0  0  0  0  0  0  0  0  0  0  0  0
   -1.0783   -2.5121    0.3577 H   0  0  0  0  0  0  0  0  0  0  0  0
   -0.5957   -3.2815    1.8692 H   0  0  0  0  0  0  0  0  0  0  0  0
    0.6446   -2.6912    0.7507 H   0  0  0  0  0  0  0  0  0  0  0  0
   -1.3608   -0.9465    2.2923 H   0  0  0  0  0  0  0  0  0  0  0  0
    0.3202   -1.1747    2.7543 H   0  0  0  0  0  0  0  0  0  0  0  0
   -0.2484    0.9910    1.6280 H   0  0  0  0  0  0  0  0  0  0  0  0
   -0.4729   -0.6138   -0.9667 H   0  0  0  0  0  0  0  0  0  0  0  0
   -0.6111    1.1421   -0.7822 H   0  0  0  0  0  0  0  0  0  0  0  0
   -1.8417    0.0813   -0.0795 H   0  0  0  0  0  0  0  0  0  0  0  0
    6.8936   -0.4007   -0.1762 H   0  0  0  0  0  0  0  0  0  0  0  0
    5.0305   -1.9018    0.6217 H   0  0  0  0  0  0  0  0  0  0  0  0
    1.8104    2.6782   -1.9569 H   0  0  0  0  0  0  0  0  0  0  0  0
   -0.5536    7.1104    0.0095 H   0  0  0  0  0  0  0  0  0  0  0  0
    0.7938    5.2778   -3.3581 H   0  0  0  0  0  0  0  0  0  0  0  0
    0.1044    5.1324    2.0985 H   0  0  0  0  0  0  0  0  0  0  0  0
    1.1673    2.8910    2.2916 H   0  0  0  0  0  0  0  0  0  0  0  0
  1  2  1  0
  1 27  1  0
  1 28  1  0
  1 29  1  0
  2  3  1  0
  2 30  1  0
  2 31  1  0
  3  4  1  0
  3  5  1  0
  3 32  1  1
  4 33  1  0
  4 34  1  0
  4 35  1  0
  5  6  2  0
  5 17  1  0
  6  7  1  0
  7  8  2  0
  7 12  1  0
  8  9  1  0
  8 17  1  0
  9 10  2  0
 10 11  1  0
 10 13  1  0
 11 12  2  0
 11 36  1  0
 12 37  1  0
 13 14  1  0
 13 15  1  0
 13 16  1  0
 17 18  1  0
 18 19  2  0
 18 26  1  0
 19 20  1  0
 19 38  1  0
 20 21  2  0
 20 24  1  0
 21 22  1  0
 21 25  1  0
 22 23  1  0
 22 39  1  0
 23 24  2  0
 24 40  1  0
 25 26  2  0
 25 41  1  0
 26 42  1  0
M  END
>  <group_name>  (1) 
JNS

>  <molecule_index>  (1) 
01494

>  <conformer_index>  (1) 
04

>  <method>  (1) 
b3lyp-d3bj

>  <basis>  (1) 
dzvp

>  <program>  (1) 
psi4

>  <initial_energy>  (1) 
-796335.9193609244 kilocalorie / mole

>  <final_energy>  (1) 
-796375.8600453371 kilocalorie / mole

$$$$
