JNS-01614-02
     RDKit          3D

 39 42  0  0  0  0  0  0  0  0999 V2000
   -0.1018   -1.1663    1.5415 C   0  0  0  0  0  0  0  0  0  0  0  0
    0.1177    0.0613    0.6367 C   0  0  0  0  0  0  0  0  0  0  0  0
    1.5342    0.1827    0.1710 C   0  0  0  0  0  0  0  0  0  0  0  0
    2.3892    1.0811    0.6240 N   0  0  0  0  0  0  0  0  0  0  0  0
    3.5948    0.7902    0.0068 C   0  0  0  0  0  0  0  0  0  0  0  0
    3.4455   -0.3339   -0.8497 C   0  0  0  0  0  0  0  0  0  0  0  0
    4.3833   -0.9015   -1.5908 N   0  0  0  0  0  0  0  0  0  0  0  0
    5.5871   -0.3168   -1.4911 C   0  0  0  0  0  0  0  0  0  0  0  0
    5.8723    0.7999   -0.6885 C   0  0  0  0  0  0  0  0  0  0  0  0
    4.8572    1.3774    0.0841 C   0  0  0  0  0  0  0  0  0  0  0  0
    6.6654   -0.9687   -2.3320 C   0  0  0  0  0  0  0  0  0  0  0  0
    6.3636   -0.9396   -3.6511 F   0  0  0  0  0  0  0  0  0  0  0  0
    7.8643   -0.3488   -2.1831 F   0  0  0  0  0  0  0  0  0  0  0  0
    6.8464   -2.2692   -1.9955 F   0  0  0  0  0  0  0  0  0  0  0  0
    2.1106   -0.7051   -0.7379 N   0  0  0  0  0  0  0  0  0  0  0  0
    1.4895   -1.7957   -1.4212 C   0  0  0  0  0  0  0  0  0  0  0  0
    0.4482   -1.5576   -2.3025 C   0  0  0  0  0  0  0  0  0  0  0  0
   -0.1454   -2.6724   -2.9258 C   0  0  0  0  0  0  0  0  0  0  0  0
    0.3518   -3.9731   -2.6580 C   0  0  0  0  0  0  0  0  0  0  0  0
   -0.4140   -4.8238   -3.4118 N   0  0  0  0  0  0  0  0  0  0  0  0
   -1.3590   -4.1679   -4.1423 N   0  0  0  0  0  0  0  0  0  0  0  0
   -1.2093   -2.8817   -3.8612 C   0  0  0  0  0  0  0  0  0  0  0  0
    1.4295   -4.2229   -1.7819 C   0  0  0  0  0  0  0  0  0  0  0  0
    1.9410   -5.6200   -1.5455 C   0  0  0  0  0  0  0  0  0  0  0  0
    1.9754   -3.1047   -1.1695 C   0  0  0  0  0  0  0  0  0  0  0  0
    0.0904   -2.0983    1.0027 H   0  0  0  0  0  0  0  0  0  0  0  0
    0.5613   -1.1277    2.4110 H   0  0  0  0  0  0  0  0  0  0  0  0
   -1.1357   -1.1890    1.8993 H   0  0  0  0  0  0  0  0  0  0  0  0
   -0.5627    0.0102   -0.2185 H   0  0  0  0  0  0  0  0  0  0  0  0
   -0.1067    0.9798    1.1835 H   0  0  0  0  0  0  0  0  0  0  0  0
    6.8771    1.2051   -0.6718 H   0  0  0  0  0  0  0  0  0  0  0  0
    5.0439    2.2403    0.7166 H   0  0  0  0  0  0  0  0  0  0  0  0
    0.1174   -0.5447   -2.5107 H   0  0  0  0  0  0  0  0  0  0  0  0
   -0.3473   -5.8285   -3.4926 H   0  0  0  0  0  0  0  0  0  0  0  0
   -1.8571   -2.1510   -4.3294 H   0  0  0  0  0  0  0  0  0  0  0  0
    2.3091   -6.0682   -2.4763 H   0  0  0  0  0  0  0  0  0  0  0  0
    2.7648   -5.6223   -0.8283 H   0  0  0  0  0  0  0  0  0  0  0  0
    1.1519   -6.2734   -1.1536 H   0  0  0  0  0  0  0  0  0  0  0  0
    2.8085   -3.2199   -0.4826 H   0  0  0  0  0  0  0  0  0  0  0  0
  1  2  1  0
  1 26  1  0
  1 27  1  0
  1 28  1  0
  2  3  1  0
  2 29  1  0
  2 30  1  0
  3  4  2  0
  3 15  1  0
  4  5  1  0
  5  6  2  0
  5 10  1  0
  6  7  1  0
  6 15  1  0
  7  8  2  0
  8  9  1  0
  8 11  1  0
  9 10  2  0
  9 31  1  0
 10 32  1  0
 11 12  1  0
 11 13  1  0
 11 14  1  0
 15 16  1  0
 16 17  2  0
 16 25  1  0
 17 18  1  0
 17 33  1  0
 18 19  2  0
 18 22  1  0
 19 20  1  0
 19 23  1  0
 20 21  1  0
 20 34  1  0
 21 22  2  0
 22 35  1  0
 23 24  1  0
 23 25  2  0
 24 36  1  0
 24 37  1  0
 24 38  1  0
 25 39  1  0
M  END
>  <group_name>  (1) 
JNS

>  <molecule_index>  (1) 
01614

>  <conformer_index>  (1) 
02

>  <method>  (1) 
b3lyp-d3bj

>  <basis>  (1) 
dzvp

>  <program>  (1) 
psi4

>  <initial_energy>  (1) 
-771642.8715068797 kilocalorie / mole

>  <final_energy>  (1) 
-771705.7332655994 kilocalorie / mole

$$$$
