JNS-01586-03
     RDKit          3D

 40 44  0  0  0  0  0  0  0  0999 V2000
    0.0829   -1.7023   -1.1917 F   0  0  0  0  0  0  0  0  0  0  0  0
    0.2496   -0.9176   -0.0891 C   0  0  0  0  0  0  0  0  0  0  0  0
   -0.5255    0.1845   -0.2854 F   0  0  0  0  0  0  0  0  0  0  0  0
   -0.2483   -1.5853    0.9606 F   0  0  0  0  0  0  0  0  0  0  0  0
    1.7071   -0.5330    0.0841 C   0  0  0  0  0  0  0  0  0  0  0  0
    2.3588   -1.1079    1.0732 N   0  0  0  0  0  0  0  0  0  0  0  0
    3.6667   -0.7682    1.1740 C   0  0  0  0  0  0  0  0  0  0  0  0
    4.6410   -1.1771    2.1103 C   0  0  0  0  0  0  0  0  0  0  0  0
    5.7800   -0.5208    1.7229 N   0  0  0  0  0  0  0  0  0  0  0  0
    5.6282    0.3007    0.6404 N   0  0  0  0  0  0  0  0  0  0  0  0
    4.3366    0.1517    0.3021 C   0  0  0  0  0  0  0  0  0  0  0  0
    3.5984    0.7485   -0.7504 C   0  0  0  0  0  0  0  0  0  0  0  0
    2.2719    0.3924   -0.8507 C   0  0  0  0  0  0  0  0  0  0  0  0
    7.0958   -0.6584    2.2622 C   0  0  0  0  0  0  0  0  0  0  0  0
    7.6136   -1.9292    2.5292 C   0  0  0  0  0  0  0  0  0  0  0  0
    8.9012   -2.0434    3.0563 C   0  0  0  0  0  0  0  0  0  0  0  0
    9.6679   -0.8991    3.3021 C   0  0  0  0  0  0  0  0  0  0  0  0
    9.1445    0.3658    3.0122 C   0  0  0  0  0  0  0  0  0  0  0  0
    7.8554    0.4920    2.4902 C   0  0  0  0  0  0  0  0  0  0  0  0
    4.4850   -2.0306    3.2906 C   0  0  0  0  0  0  0  0  0  0  0  0
    5.1400   -1.7151    4.5184 C   0  0  0  0  0  0  0  0  0  0  0  0
    4.9801   -2.4868    5.6564 C   0  0  0  0  0  0  0  0  0  0  0  0
    4.1316   -3.6045    5.5629 C   0  0  0  0  0  0  0  0  0  0  0  0
    3.7565   -4.5592    6.4688 N   0  0  0  0  0  0  0  0  0  0  0  0
    2.8830   -5.4664    5.9422 N   0  0  0  0  0  0  0  0  0  0  0  0
    2.6925   -5.1010    4.6841 C   0  0  0  0  0  0  0  0  0  0  0  0
    3.4496   -3.9277    4.3602 C   0  0  0  0  0  0  0  0  0  0  0  0
    3.6267   -3.1297    3.2177 C   0  0  0  0  0  0  0  0  0  0  0  0
    4.0605    1.4490   -1.4399 H   0  0  0  0  0  0  0  0  0  0  0  0
    1.6409    0.8079   -1.6297 H   0  0  0  0  0  0  0  0  0  0  0  0
    7.0176   -2.8126    2.3273 H   0  0  0  0  0  0  0  0  0  0  0  0
    9.3073   -3.0290    3.2658 H   0  0  0  0  0  0  0  0  0  0  0  0
   10.6705   -0.9930    3.7102 H   0  0  0  0  0  0  0  0  0  0  0  0
    9.7391    1.2569    3.1934 H   0  0  0  0  0  0  0  0  0  0  0  0
    7.4341    1.4629    2.2521 H   0  0  0  0  0  0  0  0  0  0  0  0
    5.7718   -0.8350    4.5696 H   0  0  0  0  0  0  0  0  0  0  0  0
    5.4839   -2.2240    6.5823 H   0  0  0  0  0  0  0  0  0  0  0  0
    4.0270   -4.6500    7.4379 H   0  0  0  0  0  0  0  0  0  0  0  0
    2.0269   -5.6755    4.0519 H   0  0  0  0  0  0  0  0  0  0  0  0
    3.1032   -3.3525    2.2941 H   0  0  0  0  0  0  0  0  0  0  0  0
  1  2  1  0
  2  3  1  0
  2  4  1  0
  2  5  1  0
  5  6  2  0
  5 13  1  0
  6  7  1  0
  7  8  2  0
  7 11  1  0
  8  9  1  0
  8 20  1  0
  9 10  1  0
  9 14  1  0
 10 11  2  0
 11 12  1  0
 12 13  2  0
 12 29  1  0
 13 30  1  0
 14 15  2  0
 14 19  1  0
 15 16  1  0
 15 31  1  0
 16 17  2  0
 16 32  1  0
 17 18  1  0
 17 33  1  0
 18 19  2  0
 18 34  1  0
 19 35  1  0
 20 21  2  0
 20 28  1  0
 21 22  1  0
 21 36  1  0
 22 23  2  0
 22 37  1  0
 23 24  1  0
 23 27  1  0
 24 25  1  0
 24 38  1  0
 25 26  2  0
 26 27  1  0
 26 39  1  0
 27 28  2  0
 28 40  1  0
M  END
>  <group_name>  (1) 
JNS

>  <molecule_index>  (1) 
01586

>  <conformer_index>  (1) 
03

>  <method>  (1) 
b3lyp-d3bj

>  <basis>  (1) 
dzvp

>  <program>  (1) 
psi4

>  <initial_energy>  (1) 
-842610.5341553101 kilocalorie / mole

>  <final_energy>  (1) 
-842666.586378799 kilocalorie / mole

$$$$
