JNS-01448-03
     RDKit          3D

 43 47  0  0  0  0  0  0  0  0999 V2000
   -0.9931    1.3774   -4.3000 F   0  0  0  0  0  0  0  0  0  0  0  0
   -1.3318    0.2377   -3.6402 C   0  0  0  0  0  0  0  0  0  0  0  0
   -2.5219   -0.1600   -4.1013 F   0  0  0  0  0  0  0  0  0  0  0  0
   -0.4142   -0.7013   -3.9670 F   0  0  0  0  0  0  0  0  0  0  0  0
   -1.3788    0.4600   -2.1458 C   0  0  0  0  0  0  0  0  0  0  0  0
   -2.5071    0.5149   -1.4758 N   0  0  0  0  0  0  0  0  0  0  0  0
   -2.1228    0.7008   -0.1596 C   0  0  0  0  0  0  0  0  0  0  0  0
   -0.7080    0.7560   -0.0694 C   0  0  0  0  0  0  0  0  0  0  0  0
    0.0126    0.9036    1.0331 N   0  0  0  0  0  0  0  0  0  0  0  0
   -0.7166    1.0119    2.1492 C   0  0  0  0  0  0  0  0  0  0  0  0
   -2.1234    0.9812    2.2011 C   0  0  0  0  0  0  0  0  0  0  0  0
   -2.8565    0.8220    1.0229 C   0  0  0  0  0  0  0  0  0  0  0  0
    0.1070    1.1769    3.4133 C   0  0  0  0  0  0  0  0  0  0  0  0
   -0.6749    1.2141    4.5203 F   0  0  0  0  0  0  0  0  0  0  0  0
    0.8286    2.3198    3.3920 F   0  0  0  0  0  0  0  0  0  0  0  0
    0.9803    0.1544    3.5729 F   0  0  0  0  0  0  0  0  0  0  0  0
   -0.2390    0.6083   -1.3703 N   0  0  0  0  0  0  0  0  0  0  0  0
    1.1463    0.5909   -1.7439 C   0  0  0  0  0  0  0  0  0  0  0  0
    1.6409    1.5241   -2.6404 C   0  0  0  0  0  0  0  0  0  0  0  0
    3.0107    1.4544   -2.9515 C   0  0  0  0  0  0  0  0  0  0  0  0
    3.8305    0.4733   -2.3346 C   0  0  0  0  0  0  0  0  0  0  0  0
    5.0953    0.7019   -2.8060 N   0  0  0  0  0  0  0  0  0  0  0  0
    5.1504    1.7568   -3.6663 N   0  0  0  0  0  0  0  0  0  0  0  0
    3.9109    2.2112   -3.7689 C   0  0  0  0  0  0  0  0  0  0  0  0
    3.3308   -0.4667   -1.4046 C   0  0  0  0  0  0  0  0  0  0  0  0
    1.9698   -0.3836   -1.1351 C   0  0  0  0  0  0  0  0  0  0  0  0
    4.2016   -1.4594   -0.7358 C   0  0  0  0  0  0  0  0  0  0  0  0
    4.0872   -1.6833    0.6472 C   0  0  0  0  0  0  0  0  0  0  0  0
    4.9058   -2.6178    1.2847 C   0  0  0  0  0  0  0  0  0  0  0  0
    5.8538   -3.3413    0.5527 C   0  0  0  0  0  0  0  0  0  0  0  0
    5.9735   -3.1278   -0.8245 C   0  0  0  0  0  0  0  0  0  0  0  0
    5.1547   -2.1938   -1.4639 C   0  0  0  0  0  0  0  0  0  0  0  0
   -2.6256    1.0765    3.1564 H   0  0  0  0  0  0  0  0  0  0  0  0
   -3.9418    0.7887    1.0237 H   0  0  0  0  0  0  0  0  0  0  0  0
    0.9969    2.2806   -3.0753 H   0  0  0  0  0  0  0  0  0  0  0  0
    5.9534    0.2443   -2.5304 H   0  0  0  0  0  0  0  0  0  0  0  0
    3.6974    3.0555   -4.4126 H   0  0  0  0  0  0  0  0  0  0  0  0
    1.5198   -1.0881   -0.4439 H   0  0  0  0  0  0  0  0  0  0  0  0
    3.3706   -1.1052    1.2248 H   0  0  0  0  0  0  0  0  0  0  0  0
    4.8101   -2.7736    2.3560 H   0  0  0  0  0  0  0  0  0  0  0  0
    6.4922   -4.0661    1.0507 H   0  0  0  0  0  0  0  0  0  0  0  0
    6.6965   -3.6964   -1.4035 H   0  0  0  0  0  0  0  0  0  0  0  0
    5.2239   -2.0680   -2.5418 H   0  0  0  0  0  0  0  0  0  0  0  0
  1  2  1  0
  2  3  1  0
  2  4  1  0
  2  5  1  0
  5  6  2  0
  5 17  1  0
  6  7  1  0
  7  8  2  0
  7 12  1  0
  8  9  1  0
  8 17  1  0
  9 10  2  0
 10 11  1  0
 10 13  1  0
 11 12  2  0
 11 33  1  0
 12 34  1  0
 13 14  1  0
 13 15  1  0
 13 16  1  0
 17 18  1  0
 18 19  2  0
 18 26  1  0
 19 20  1  0
 19 35  1  0
 20 21  2  0
 20 24  1  0
 21 22  1  0
 21 25  1  0
 22 23  1  0
 22 36  1  0
 23 24  2  0
 24 37  1  0
 25 26  2  0
 25 27  1  0
 26 38  1  0
 27 28  2  0
 27 32  1  0
 28 29  1  0
 28 39  1  0
 29 30  2  0
 29 40  1  0
 30 31  1  0
 30 41  1  0
 31 32  2  0
 31 42  1  0
 32 43  1  0
M  END
>  <group_name>  (1) 
JNS

>  <molecule_index>  (1) 
01448

>  <conformer_index>  (1) 
03

>  <method>  (1) 
b3lyp-d3bj

>  <basis>  (1) 
dzvp

>  <program>  (1) 
psi4

>  <initial_energy>  (1) 
-1054171.741766607 kilocalorie / mole

>  <final_energy>  (1) 
-1054231.3011790903 kilocalorie / mole

$$$$
