JNS-01948-00
     RDKit          3D

 33 34  0  0  0  0  0  0  0  0999 V2000
   -0.6196    1.3544   -0.1953 C   0  0  0  0  0  0  0  0  0  0  0  0
    0.0722    0.0940   -0.2474 O   0  0  0  0  0  0  0  0  0  0  0  0
    1.4178    0.1322   -0.1136 C   0  0  0  0  0  0  0  0  0  0  0  0
    2.0277    1.2994    0.0478 N   0  0  0  0  0  0  0  0  0  0  0  0
    3.3636    1.2747    0.1813 C   0  0  0  0  0  0  0  0  0  0  0  0
    4.1335    0.1236    0.1590 C   0  0  0  0  0  0  0  0  0  0  0  0
    3.4794   -1.1151   -0.0189 C   0  0  0  0  0  0  0  0  0  0  0  0
    4.2603   -2.4022   -0.1026 C   0  0  0  0  0  0  0  0  0  0  0  0
    4.4752   -2.8909   -1.5535 C   0  0  2  0  0  0  0  0  0  0  0  0
    5.2706   -4.2301   -1.5743 C   0  0  0  0  0  0  0  0  0  0  0  0
    6.6568   -3.8694   -2.1615 C   0  0  0  0  0  0  0  0  0  0  0  0
    6.7210   -2.4068   -2.0100 N   0  0  0  0  0  0  0  0  0  0  0  0
    5.3749   -1.9433   -2.3689 C   0  0  0  0  0  0  0  0  0  0  0  0
    2.0972   -1.1023   -0.1549 C   0  0  0  0  0  0  0  0  0  0  0  0
    3.9947    2.6422    0.3579 C   0  0  0  0  0  0  0  0  0  0  0  0
    5.3397    2.5595    0.5155 F   0  0  0  0  0  0  0  0  0  0  0  0
    3.7672    3.4373   -0.7151 F   0  0  0  0  0  0  0  0  0  0  0  0
    3.5036    3.2849    1.4423 F   0  0  0  0  0  0  0  0  0  0  0  0
   -0.4511    1.8497    0.7644 H   0  0  0  0  0  0  0  0  0  0  0  0
   -1.6739    1.1050   -0.3184 H   0  0  0  0  0  0  0  0  0  0  0  0
   -0.2842    2.0146   -0.9994 H   0  0  0  0  0  0  0  0  0  0  0  0
    5.2098    0.1709    0.2782 H   0  0  0  0  0  0  0  0  0  0  0  0
    3.7295   -3.1848    0.4512 H   0  0  0  0  0  0  0  0  0  0  0  0
    5.2404   -2.2758    0.3674 H   0  0  0  0  0  0  0  0  0  0  0  0
    3.4981   -2.9983   -2.0345 H   0  0  0  0  0  0  0  0  0  0  0  0
    4.7696   -4.9886   -2.1816 H   0  0  0  0  0  0  0  0  0  0  0  0
    5.3654   -4.6352   -0.5628 H   0  0  0  0  0  0  0  0  0  0  0  0
    6.7063   -4.1840   -3.2182 H   0  0  0  0  0  0  0  0  0  0  0  0
    7.4825   -4.3505   -1.6283 H   0  0  0  0  0  0  0  0  0  0  0  0
    7.4357   -1.9966   -2.6068 H   0  0  0  0  0  0  0  0  0  0  0  0
    5.2406   -0.8880   -2.1164 H   0  0  0  0  0  0  0  0  0  0  0  0
    5.1523   -2.0643   -3.4445 H   0  0  0  0  0  0  0  0  0  0  0  0
    1.5262   -2.0167   -0.2879 H   0  0  0  0  0  0  0  0  0  0  0  0
  1  2  1  0
  1 19  1  0
  1 20  1  0
  1 21  1  0
  2  3  1  0
  3  4  2  0
  3 14  1  0
  4  5  1  0
  5  6  2  0
  5 15  1  0
  6  7  1  0
  6 22  1  0
  7  8  1  0
  7 14  2  0
  8  9  1  0
  8 23  1  0
  8 24  1  0
  9 10  1  0
  9 13  1  0
  9 25  1  6
 10 11  1  0
 10 26  1  0
 10 27  1  0
 11 12  1  0
 11 28  1  0
 11 29  1  0
 12 13  1  0
 12 30  1  0
 13 31  1  0
 13 32  1  0
 14 33  1  0
 15 16  1  0
 15 17  1  0
 15 18  1  0
M  END
>  <group_name>  (1) 
JNS

>  <molecule_index>  (1) 
01948

>  <conformer_index>  (1) 
00

>  <method>  (1) 
b3lyp-d3bj

>  <basis>  (1) 
dzvp

>  <program>  (1) 
psi4

>  <initial_energy>  (1) 
-596559.7084063209 kilocalorie / mole

>  <final_energy>  (1) 
-596614.9844977134 kilocalorie / mole

$$$$
