JNS-01242-04
     RDKit          3D

 41 45  0  0  0  0  0  0  0  0999 V2000
   -0.4238    4.9198   -1.0779 F   0  0  0  0  0  0  0  0  0  0  0  0
   -1.1725    4.5859    0.0001 C   0  0  0  0  0  0  0  0  0  0  0  0
   -2.2793    5.3718   -0.0239 F   0  0  0  0  0  0  0  0  0  0  0  0
   -0.4628    4.9302    1.0997 F   0  0  0  0  0  0  0  0  0  0  0  0
   -1.5300    3.1131   -0.0004 C   0  0  0  0  0  0  0  0  0  0  0  0
   -2.8703    2.6942   -0.0234 C   0  0  0  0  0  0  0  0  0  0  0  0
   -3.1711    1.3267   -0.0253 C   0  0  0  0  0  0  0  0  0  0  0  0
   -2.0914    0.4448   -0.0044 C   0  0  0  0  0  0  0  0  0  0  0  0
   -2.0149   -0.9394   -0.0046 N   0  0  0  0  0  0  0  0  0  0  0  0
   -0.7266   -1.2224    0.0208 C   0  0  0  0  0  0  0  0  0  0  0  0
   -0.1462   -2.5975   -0.0157 C   0  0  2  0  0  0  0  0  0  0  0  0
    0.6520   -2.9199   -1.3124 C   0  0  0  0  0  0  0  0  0  0  0  0
    0.2963   -4.4045   -1.5875 C   0  0  0  0  0  0  0  0  0  0  0  0
   -0.4849   -4.8583   -0.4758 O   0  0  0  0  0  0  0  0  0  0  0  0
   -1.1935   -3.7213    0.0119 C   0  0  0  0  0  0  0  0  0  0  0  0
    0.0787   -0.0830    0.0446 N   0  0  0  0  0  0  0  0  0  0  0  0
   -0.7863    1.0058    0.0203 C   0  0  0  0  0  0  0  0  0  0  0  0
   -0.4704    2.2900    0.0216 N   0  0  0  0  0  0  0  0  0  0  0  0
    1.5049   -0.0235    0.0545 C   0  0  0  0  0  0  0  0  0  0  0  0
    2.1720    0.5008   -1.0654 C   0  0  0  0  0  0  0  0  0  0  0  0
    3.5667    0.5716   -1.1135 C   0  0  0  0  0  0  0  0  0  0  0  0
    4.2769    0.0928   -0.0108 C   0  0  0  0  0  0  0  0  0  0  0  0
    5.6534    0.0192    0.2542 N   0  0  0  0  0  0  0  0  0  0  0  0
    5.7022   -0.5014    1.4405 C   0  0  0  0  0  0  0  0  0  0  0  0
    6.7740   -0.7891    2.1742 O   0  0  0  0  0  0  0  0  0  0  0  0
    4.5171   -0.8058    2.0410 O   0  0  0  0  0  0  0  0  0  0  0  0
    3.5771   -0.4197    1.0948 C   0  0  0  0  0  0  0  0  0  0  0  0
    2.1991   -0.4879    1.1812 C   0  0  0  0  0  0  0  0  0  0  0  0
   -3.6624    3.4335   -0.0404 H   0  0  0  0  0  0  0  0  0  0  0  0
   -4.1963    0.9688   -0.0433 H   0  0  0  0  0  0  0  0  0  0  0  0
    0.5215   -2.7321    0.8409 H   0  0  0  0  0  0  0  0  0  0  0  0
    0.3286   -2.2789   -2.1369 H   0  0  0  0  0  0  0  0  0  0  0  0
    1.7227   -2.7626   -1.1700 H   0  0  0  0  0  0  0  0  0  0  0  0
   -0.2858   -4.4976   -2.5149 H   0  0  0  0  0  0  0  0  0  0  0  0
    1.1722   -5.0537   -1.6588 H   0  0  0  0  0  0  0  0  0  0  0  0
   -2.0460   -3.4713   -0.6331 H   0  0  0  0  0  0  0  0  0  0  0  0
   -1.5616   -3.9529    1.0129 H   0  0  0  0  0  0  0  0  0  0  0  0
    1.5796    0.8609   -1.9002 H   0  0  0  0  0  0  0  0  0  0  0  0
    4.0810    0.9831   -1.9760 H   0  0  0  0  0  0  0  0  0  0  0  0
    7.5529   -0.5243    1.6523 H   0  0  0  0  0  0  0  0  0  0  0  0
    1.6819   -0.8584    2.0597 H   0  0  0  0  0  0  0  0  0  0  0  0
  1  2  1  0
  2  3  1  0
  2  4  1  0
  2  5  1  0
  5  6  2  0
  5 18  1  0
  6  7  1  0
  6 29  1  0
  7  8  2  0
  7 30  1  0
  8  9  1  0
  8 17  1  0
  9 10  2  0
 10 11  1  0
 10 16  1  0
 11 12  1  0
 11 15  1  0
 11 31  1  1
 12 13  1  0
 12 32  1  0
 12 33  1  0
 13 14  1  0
 13 34  1  0
 13 35  1  0
 14 15  1  0
 15 36  1  0
 15 37  1  0
 16 17  1  0
 16 19  1  0
 17 18  2  0
 19 20  2  0
 19 28  1  0
 20 21  1  0
 20 38  1  0
 21 22  2  0
 21 39  1  0
 22 23  1  0
 22 27  1  0
 23 24  2  0
 24 25  1  0
 24 26  1  0
 25 40  1  0
 26 27  1  0
 27 28  2  0
 28 41  1  0
M  END
>  <group_name>  (1) 
JNS

>  <molecule_index>  (1) 
01242

>  <conformer_index>  (1) 
04

>  <method>  (1) 
b3lyp-d3bj

>  <basis>  (1) 
dzvp

>  <program>  (1) 
psi4

>  <initial_energy>  (1) 
-902425.7623293594 kilocalorie / mole

>  <final_energy>  (1) 
-902513.03236423 kilocalorie / mole

$$$$
