JNS-01374-04
     RDKit          3D

 32 35  0  0  0  0  0  0  0  0999 V2000
   -0.5705    0.1812   -1.2296 F   0  0  0  0  0  0  0  0  0  0  0  0
   -0.0711    0.2778    0.0263 C   0  0  0  0  0  0  0  0  0  0  0  0
   -0.4375    1.4562    0.5363 F   0  0  0  0  0  0  0  0  0  0  0  0
   -0.6586   -0.7016    0.7635 F   0  0  0  0  0  0  0  0  0  0  0  0
    1.4309    0.1248    0.0250 C   0  0  0  0  0  0  0  0  0  0  0  0
    2.2475    0.9884    0.5793 N   0  0  0  0  0  0  0  0  0  0  0  0
    3.5117    0.4700    0.3481 C   0  0  0  0  0  0  0  0  0  0  0  0
    3.4156   -0.7490   -0.3718 C   0  0  0  0  0  0  0  0  0  0  0  0
    4.4147   -1.5206   -0.7713 N   0  0  0  0  0  0  0  0  0  0  0  0
    5.6244   -1.0579   -0.4342 C   0  0  0  0  0  0  0  0  0  0  0  0
    5.8631    0.1326    0.2789 C   0  0  0  0  0  0  0  0  0  0  0  0
    4.7879    0.9258    0.6862 C   0  0  0  0  0  0  0  0  0  0  0  0
    6.7762   -1.9383   -0.8868 C   0  0  0  0  0  0  0  0  0  0  0  0
    7.9752   -1.4132   -0.5312 F   0  0  0  0  0  0  0  0  0  0  0  0
    6.7856   -2.0909   -2.2294 F   0  0  0  0  0  0  0  0  0  0  0  0
    6.6999   -3.1721   -0.3400 F   0  0  0  0  0  0  0  0  0  0  0  0
    2.0553   -0.9612   -0.5698 N   0  0  0  0  0  0  0  0  0  0  0  0
    1.4777   -2.0696   -1.2678 C   0  0  0  0  0  0  0  0  0  0  0  0
    0.8607   -3.0997   -0.5708 C   0  0  0  0  0  0  0  0  0  0  0  0
    0.3347   -4.1449   -1.3421 C   0  0  0  0  0  0  0  0  0  0  0  0
    0.4952   -4.0592   -2.7536 C   0  0  0  0  0  0  0  0  0  0  0  0
   -0.0877   -5.1821   -3.2634 N   0  0  0  0  0  0  0  0  0  0  0  0
   -0.6075   -5.9817   -2.2903 N   0  0  0  0  0  0  0  0  0  0  0  0
   -0.3640   -5.3768   -1.1370 C   0  0  0  0  0  0  0  0  0  0  0  0
    1.0973   -3.0777   -3.4387 N   0  0  0  0  0  0  0  0  0  0  0  0
    1.5780   -2.0976   -2.6810 C   0  0  0  0  0  0  0  0  0  0  0  0
    6.8817    0.4242    0.5054 H   0  0  0  0  0  0  0  0  0  0  0  0
    4.9340    1.8501    1.2369 H   0  0  0  0  0  0  0  0  0  0  0  0
    0.7952   -3.0804    0.5129 H   0  0  0  0  0  0  0  0  0  0  0  0
   -0.1582   -5.4562   -4.2348 H   0  0  0  0  0  0  0  0  0  0  0  0
   -0.6901   -5.8333   -0.2108 H   0  0  0  0  0  0  0  0  0  0  0  0
    2.0768   -1.2762   -3.1914 H   0  0  0  0  0  0  0  0  0  0  0  0
  1  2  1  0
  2  3  1  0
  2  4  1  0
  2  5  1  0
  5  6  2  0
  5 17  1  0
  6  7  1  0
  7  8  2  0
  7 12  1  0
  8  9  1  0
  8 17  1  0
  9 10  2  0
 10 11  1  0
 10 13  1  0
 11 12  2  0
 11 27  1  0
 12 28  1  0
 13 14  1  0
 13 15  1  0
 13 16  1  0
 17 18  1  0
 18 19  2  0
 18 26  1  0
 19 20  1  0
 19 29  1  0
 20 21  2  0
 20 24  1  0
 21 22  1  0
 21 25  1  0
 22 23  1  0
 22 30  1  0
 23 24  2  0
 24 31  1  0
 25 26  2  0
 26 32  1  0
M  END
>  <group_name>  (1) 
JNS

>  <molecule_index>  (1) 
01374

>  <conformer_index>  (1) 
04

>  <method>  (1) 
b3lyp-d3bj

>  <basis>  (1) 
dzvp

>  <program>  (1) 
psi4

>  <initial_energy>  (1) 
-919237.9223875534 kilocalorie / mole

>  <final_energy>  (1) 
-919279.9089535092 kilocalorie / mole

$$$$
