JNS-01554-02
     RDKit          3D

 35 38  0  0  0  0  0  0  0  0999 V2000
    0.1021   -0.2098    2.5227 F   0  0  0  0  0  0  0  0  0  0  0  0
    0.0907   -0.0555    1.1836 C   0  0  0  0  0  0  0  0  0  0  0  0
   -0.5645   -1.1268    0.6425 F   0  0  0  0  0  0  0  0  0  0  0  0
    1.4407    0.0087    0.6801 N   0  0  0  0  0  0  0  0  0  0  0  0
    2.3915   -0.7710    1.2676 N   0  0  0  0  0  0  0  0  0  0  0  0
    3.5209   -0.4107    0.6406 C   0  0  0  0  0  0  0  0  0  0  0  0
    4.8487   -0.8781    0.8266 C   0  0  0  0  0  0  0  0  0  0  0  0
    5.8150   -0.3098    0.0304 C   0  0  0  0  0  0  0  0  0  0  0  0
    5.4579    0.6975   -0.9265 C   0  0  0  0  0  0  0  0  0  0  0  0
    4.2423    1.1527   -1.1335 N   0  0  0  0  0  0  0  0  0  0  0  0
    3.2828    0.6014   -0.3482 C   0  0  0  0  0  0  0  0  0  0  0  0
    1.8968    0.8460   -0.3115 C   0  0  0  0  0  0  0  0  0  0  0  0
    1.0856    1.7364   -1.1385 C   0  0  0  0  0  0  0  0  0  0  0  0
   -0.1816    1.3519   -1.6146 C   0  0  0  0  0  0  0  0  0  0  0  0
   -0.9277    2.2130   -2.4224 C   0  0  0  0  0  0  0  0  0  0  0  0
   -2.5059    1.7396   -3.0198 Cl  0  0  0  0  0  0  0  0  0  0  0  0
   -0.3970    3.4512   -2.7683 C   0  0  0  0  0  0  0  0  0  0  0  0
   -0.9442    4.4588   -3.5551 N   0  0  0  0  0  0  0  0  0  0  0  0
   -0.0851    5.5525   -3.6802 C   0  0  0  0  0  0  0  0  0  0  0  0
   -0.3227    6.5640   -4.3112 O   0  0  0  0  0  0  0  0  0  0  0  0
    1.1766    5.2060   -2.8731 C   0  0  0  0  0  0  0  0  0  0  0  0
    0.8831    3.8340   -2.3177 C   0  0  0  0  0  0  0  0  0  0  0  0
    1.6251    2.9905   -1.5139 C   0  0  0  0  0  0  0  0  0  0  0  0
    6.5578    1.2675   -1.8063 C   0  0  0  0  0  0  0  0  0  0  0  0
    6.1958    2.3979   -2.4301 F   0  0  0  0  0  0  0  0  0  0  0  0
    7.6722    1.5367   -1.0742 F   0  0  0  0  0  0  0  0  0  0  0  0
    6.9283    0.3700   -2.7587 F   0  0  0  0  0  0  0  0  0  0  0  0
   -0.4486    0.8550    0.9215 H   0  0  0  0  0  0  0  0  0  0  0  0
    5.0812   -1.6414    1.5631 H   0  0  0  0  0  0  0  0  0  0  0  0
    6.8543   -0.6088    0.1175 H   0  0  0  0  0  0  0  0  0  0  0  0
   -0.5784    0.3638   -1.4068 H   0  0  0  0  0  0  0  0  0  0  0  0
   -1.8532    4.4216   -4.0016 H   0  0  0  0  0  0  0  0  0  0  0  0
    1.3341    5.9659   -2.1017 H   0  0  0  0  0  0  0  0  0  0  0  0
    2.0480    5.2262   -3.5348 H   0  0  0  0  0  0  0  0  0  0  0  0
    2.6156    3.2720   -1.1728 H   0  0  0  0  0  0  0  0  0  0  0  0
  1  2  1  0
  2  3  1  0
  2  4  1  0
  2 28  1  0
  4  5  1  0
  4 12  1  0
  5  6  2  0
  6  7  1  0
  6 11  1  0
  7  8  2  0
  7 29  1  0
  8  9  1  0
  8 30  1  0
  9 10  2  0
  9 24  1  0
 10 11  1  0
 11 12  2  0
 12 13  1  0
 13 14  2  0
 13 23  1  0
 14 15  1  0
 14 31  1  0
 15 16  1  0
 15 17  2  0
 17 18  1  0
 17 22  1  0
 18 19  1  0
 18 32  1  0
 19 20  2  0
 19 21  1  0
 21 22  1  0
 21 33  1  0
 21 34  1  0
 22 23  2  0
 23 35  1  0
 24 25  1  0
 24 26  1  0
 24 27  1  0
M  END
>  <group_name>  (1) 
JNS

>  <molecule_index>  (1) 
01554

>  <conformer_index>  (1) 
02

>  <method>  (1) 
b3lyp-d3bj

>  <basis>  (1) 
dzvp

>  <program>  (1) 
psi4

>  <initial_energy>  (1) 
-1172413.6933770194 kilocalorie / mole

>  <final_energy>  (1) 
-1172455.5228746627 kilocalorie / mole

$$$$
