JNS-01845-02
     RDKit          3D

 36 39  0  0  0  0  0  0  0  0999 V2000
   -0.0305    0.1292    0.0973 C   0  0  0  0  0  0  0  0  0  0  0  0
    1.4604    0.0465    0.0344 C   0  0  0  0  0  0  0  0  0  0  0  0
    2.3807    1.0720    0.0409 C   0  0  0  0  0  0  0  0  0  0  0  0
    3.6882    0.4841    0.0230 C   0  0  0  0  0  0  0  0  0  0  0  0
    3.5007   -0.9317    0.0075 C   0  0  0  0  0  0  0  0  0  0  0  0
    4.4520   -1.8536   -0.0014 N   0  0  0  0  0  0  0  0  0  0  0  0
    5.7026   -1.3759    0.0049 C   0  0  0  0  0  0  0  0  0  0  0  0
    6.0340   -0.0110    0.0171 C   0  0  0  0  0  0  0  0  0  0  0  0
    5.0114    0.9410    0.0253 C   0  0  0  0  0  0  0  0  0  0  0  0
    6.7762   -2.4435    0.0077 C   0  0  0  0  0  0  0  0  0  0  0  0
    6.6995   -3.2427   -1.0824 F   0  0  0  0  0  0  0  0  0  0  0  0
    8.0219   -1.9044    0.0213 F   0  0  0  0  0  0  0  0  0  0  0  0
    6.6796   -3.2485    1.0950 F   0  0  0  0  0  0  0  0  0  0  0  0
    2.1335   -1.1820    0.0058 N   0  0  0  0  0  0  0  0  0  0  0  0
    1.5508   -2.4805   -0.0139 C   0  0  0  0  0  0  0  0  0  0  0  0
    1.9051   -3.4120    0.9772 C   0  0  0  0  0  0  0  0  0  0  0  0
    1.3510   -4.6814    0.9296 C   0  0  0  0  0  0  0  0  0  0  0  0
    0.4379   -5.0267   -0.0824 C   0  0  0  0  0  0  0  0  0  0  0  0
    0.0143   -6.3475    0.0788 N   0  0  0  0  0  0  0  0  0  0  0  0
    0.6136   -6.9519    1.1819 C   0  0  0  0  0  0  0  0  0  0  0  0
    0.4236   -8.0961    1.5506 O   0  0  0  0  0  0  0  0  0  0  0  0
    1.5358   -5.8922    1.8104 C   0  0  0  0  0  0  0  0  0  0  0  0
    0.0966   -4.0971   -1.0520 C   0  0  0  0  0  0  0  0  0  0  0  0
   -0.7784   -4.4450   -2.0331 F   0  0  0  0  0  0  0  0  0  0  0  0
    0.6594   -2.8247   -1.0369 C   0  0  0  0  0  0  0  0  0  0  0  0
   -0.3259    1.1483    0.3554 H   0  0  0  0  0  0  0  0  0  0  0  0
   -0.5020   -0.1255   -0.8575 H   0  0  0  0  0  0  0  0  0  0  0  0
   -0.4351   -0.5527    0.8521 H   0  0  0  0  0  0  0  0  0  0  0  0
    2.1348    2.1254    0.0768 H   0  0  0  0  0  0  0  0  0  0  0  0
    7.0747    0.2908    0.0222 H   0  0  0  0  0  0  0  0  0  0  0  0
    5.2439    2.0025    0.0353 H   0  0  0  0  0  0  0  0  0  0  0  0
    2.6149   -3.1338    1.7486 H   0  0  0  0  0  0  0  0  0  0  0  0
   -0.6352   -6.8338   -0.5269 H   0  0  0  0  0  0  0  0  0  0  0  0
    1.2425   -5.7281    2.8518 H   0  0  0  0  0  0  0  0  0  0  0  0
    2.5643   -6.2665    1.8151 H   0  0  0  0  0  0  0  0  0  0  0  0
    0.4179   -2.1266   -1.8308 H   0  0  0  0  0  0  0  0  0  0  0  0
  1  2  1  0
  1 26  1  0
  1 27  1  0
  1 28  1  0
  2  3  2  0
  2 14  1  0
  3  4  1  0
  3 29  1  0
  4  5  2  0
  4  9  1  0
  5  6  1  0
  5 14  1  0
  6  7  2  0
  7  8  1  0
  7 10  1  0
  8  9  2  0
  8 30  1  0
  9 31  1  0
 10 11  1  0
 10 12  1  0
 10 13  1  0
 14 15  1  0
 15 16  2  0
 15 25  1  0
 16 17  1  0
 16 32  1  0
 17 18  2  0
 17 22  1  0
 18 19  1  0
 18 23  1  0
 19 20  1  0
 19 33  1  0
 20 21  2  0
 20 22  1  0
 22 34  1  0
 22 35  1  0
 23 24  1  0
 23 25  2  0
 25 36  1  0
M  END
>  <group_name>  (1) 
JNS

>  <molecule_index>  (1) 
01845

>  <conformer_index>  (1) 
02

>  <method>  (1) 
b3lyp-d3bj

>  <basis>  (1) 
dzvp

>  <program>  (1) 
psi4

>  <initial_energy>  (1) 
-811728.7376621885 kilocalorie / mole

>  <final_energy>  (1) 
-811734.3206562464 kilocalorie / mole

$$$$
