JNS-02158-04
     RDKit          3D

 42 45  0  0  0  0  0  0  0  0999 V2000
   -2.3994    1.9957    1.1880 C   0  0  0  0  0  0  0  0  0  0  0  0
   -1.8172    1.6412   -0.1874 C   0  0  2  0  0  0  0  0  0  0  0  0
   -0.3496    1.4424   -0.1399 N   0  0  0  0  0  0  0  0  0  0  0  0
    0.4886    2.6410   -0.2562 C   0  0  0  0  0  0  0  0  0  0  0  0
    0.3260    3.3342   -1.6207 C   0  0  0  0  0  0  0  0  0  0  0  0
   -1.1398    3.4170   -1.8908 C   0  0  0  0  0  0  0  0  0  0  0  0
   -2.0921    2.6822   -1.2315 C   0  0  0  0  0  0  0  0  0  0  0  0
   -3.3360    3.0363   -1.6896 N   0  0  0  0  0  0  0  0  0  0  0  0
   -3.2160    3.9517   -2.6012 N   0  0  0  0  0  0  0  0  0  0  0  0
   -1.8683    4.2074   -2.7473 N   0  0  0  0  0  0  0  0  0  0  0  0
   -1.4076    5.1312   -3.7101 C   0  0  0  0  0  0  0  0  0  0  0  0
   -2.3084    5.9671   -4.2293 N   0  0  0  0  0  0  0  0  0  0  0  0
   -1.8584    6.8156   -5.1554 C   0  0  0  0  0  0  0  0  0  0  0  0
   -0.5162    6.8224   -5.5290 C   0  0  0  0  0  0  0  0  0  0  0  0
   -0.0651    7.6853   -6.4610 F   0  0  0  0  0  0  0  0  0  0  0  0
    0.3487    5.9244   -4.9148 C   0  0  0  0  0  0  0  0  0  0  0  0
   -0.1039    5.0625   -3.9978 N   0  0  0  0  0  0  0  0  0  0  0  0
    0.1008    0.2011    0.1947 C   0  0  0  0  0  0  0  0  0  0  0  0
   -0.6427   -0.7360    0.4882 O   0  0  0  0  0  0  0  0  0  0  0  0
    1.5937   -0.0414    0.2131 C   0  0  0  0  0  0  0  0  0  0  0  0
    2.2009   -0.5394    1.3705 C   0  0  0  0  0  0  0  0  0  0  0  0
    3.5644   -0.8365    1.3548 C   0  0  0  0  0  0  0  0  0  0  0  0
    4.3363   -0.6843    0.2710 N   0  0  0  0  0  0  0  0  0  0  0  0
    3.7654   -0.2350   -0.8447 C   0  0  0  0  0  0  0  0  0  0  0  0
    2.4075    0.0884   -0.9080 C   0  0  0  0  0  0  0  0  0  0  0  0
    1.8818    0.5371   -2.0677 F   0  0  0  0  0  0  0  0  0  0  0  0
    4.6449   -0.0636   -2.0754 C   0  0  0  0  0  0  0  0  0  0  0  0
    4.1947   -0.8186   -3.1065 F   0  0  0  0  0  0  0  0  0  0  0  0
    4.6333    1.2308   -2.4946 F   0  0  0  0  0  0  0  0  0  0  0  0
    5.9166   -0.4040   -1.8384 F   0  0  0  0  0  0  0  0  0  0  0  0
   -3.4775    2.1532    1.0974 H   0  0  0  0  0  0  0  0  0  0  0  0
   -2.2186    1.1783    1.8903 H   0  0  0  0  0  0  0  0  0  0  0  0
   -1.9548    2.9160    1.5807 H   0  0  0  0  0  0  0  0  0  0  0  0
   -2.2443    0.6886   -0.5073 H   0  0  0  0  0  0  0  0  0  0  0  0
    1.5305    2.3776   -0.0836 H   0  0  0  0  0  0  0  0  0  0  0  0
    0.1998    3.3409    0.5379 H   0  0  0  0  0  0  0  0  0  0  0  0
    0.8337    2.7722   -2.4084 H   0  0  0  0  0  0  0  0  0  0  0  0
    0.7863    4.3249   -1.5880 H   0  0  0  0  0  0  0  0  0  0  0  0
   -2.5703    7.5066   -5.6032 H   0  0  0  0  0  0  0  0  0  0  0  0
    1.4067    5.8949   -5.1671 H   0  0  0  0  0  0  0  0  0  0  0  0
    1.6052   -0.6989    2.2639 H   0  0  0  0  0  0  0  0  0  0  0  0
    4.0593   -1.2149    2.2460 H   0  0  0  0  0  0  0  0  0  0  0  0
  1  2  1  0
  1 31  1  0
  1 32  1  0
  1 33  1  0
  2  3  1  0
  2  7  1  0
  2 34  1  6
  3  4  1  0
  3 18  1  0
  4  5  1  0
  4 35  1  0
  4 36  1  0
  5  6  1  0
  5 37  1  0
  5 38  1  0
  6  7  2  0
  6 10  1  0
  7  8  1  0
  8  9  2  0
  9 10  1  0
 10 11  1  0
 11 12  2  0
 11 17  1  0
 12 13  1  0
 13 14  2  0
 13 39  1  0
 14 15  1  0
 14 16  1  0
 16 17  2  0
 16 40  1  0
 18 19  2  0
 18 20  1  0
 20 21  2  0
 20 25  1  0
 21 22  1  0
 21 41  1  0
 22 23  2  0
 22 42  1  0
 23 24  1  0
 24 25  2  0
 24 27  1  0
 25 26  1  0
 27 28  1  0
 27 29  1  0
 27 30  1  0
M  END
>  <group_name>  (1) 
JNS

>  <molecule_index>  (1) 
02158

>  <conformer_index>  (1) 
04

>  <method>  (1) 
b3lyp-d3bj

>  <basis>  (1) 
dzvp

>  <program>  (1) 
psi4

>  <initial_energy>  (1) 
-1012167.186645227 kilocalorie / mole

>  <final_energy>  (1) 
-1012182.9816762838 kilocalorie / mole

$$$$
