JNS-01795-07
     RDKit          3D

 43 46  0  0  0  0  0  0  0  0999 V2000
   -0.4204    1.6528    0.7436 C   0  0  0  0  0  0  0  0  0  0  0  0
   -0.1431    0.3108    0.0390 C   0  0  0  0  0  0  0  0  0  0  0  0
   -0.6688    0.3950   -1.4119 C   0  0  0  0  0  0  0  0  0  0  0  0
   -0.8883   -0.8106    0.8000 C   0  0  0  0  0  0  0  0  0  0  0  0
    1.3543    0.0588    0.0600 C   0  0  0  0  0  0  0  0  0  0  0  0
    2.2070    0.8577    0.6792 N   0  0  0  0  0  0  0  0  0  0  0  0
    3.4604    0.3098    0.4830 C   0  0  0  0  0  0  0  0  0  0  0  0
    3.3523   -0.8736   -0.2918 C   0  0  0  0  0  0  0  0  0  0  0  0
    4.3403   -1.6631   -0.6824 N   0  0  0  0  0  0  0  0  0  0  0  0
    5.5537   -1.2608   -0.2755 C   0  0  0  0  0  0  0  0  0  0  0  0
    5.8028   -0.1135    0.4962 C   0  0  0  0  0  0  0  0  0  0  0  0
    4.7351    0.7012    0.8917 C   0  0  0  0  0  0  0  0  0  0  0  0
    6.6885   -2.1560   -0.7285 C   0  0  0  0  0  0  0  0  0  0  0  0
    6.7840   -2.2014   -2.0796 F   0  0  0  0  0  0  0  0  0  0  0  0
    6.5306   -3.4301   -0.2995 F   0  0  0  0  0  0  0  0  0  0  0  0
    7.8889   -1.7240   -0.2609 F   0  0  0  0  0  0  0  0  0  0  0  0
    1.9956   -1.0245   -0.5535 N   0  0  0  0  0  0  0  0  0  0  0  0
    1.4726   -2.1173   -1.3231 C   0  0  0  0  0  0  0  0  0  0  0  0
    1.0699   -3.2781   -0.6764 C   0  0  0  0  0  0  0  0  0  0  0  0
    0.5956   -4.3507   -1.4506 C   0  0  0  0  0  0  0  0  0  0  0  0
    0.5644   -4.2158   -2.8699 C   0  0  0  0  0  0  0  0  0  0  0  0
    0.0676   -5.3999   -3.3802 N   0  0  0  0  0  0  0  0  0  0  0  0
   -0.2067   -6.2709   -2.3361 C   0  0  0  0  0  0  0  0  0  0  0  0
    0.1005   -5.6653   -1.1409 C   0  0  0  0  0  0  0  0  0  0  0  0
    0.9979   -3.0534   -3.5203 C   0  0  0  0  0  0  0  0  0  0  0  0
    1.4566   -2.0064   -2.7301 C   0  0  0  0  0  0  0  0  0  0  0  0
    0.0859    2.4795    0.2393 H   0  0  0  0  0  0  0  0  0  0  0  0
   -1.4986    1.8438    0.7339 H   0  0  0  0  0  0  0  0  0  0  0  0
   -0.0757    1.6384    1.7799 H   0  0  0  0  0  0  0  0  0  0  0  0
   -0.5940   -0.5589   -1.9362 H   0  0  0  0  0  0  0  0  0  0  0  0
   -0.1192    1.1496   -1.9845 H   0  0  0  0  0  0  0  0  0  0  0  0
   -1.7241    0.6873   -1.3952 H   0  0  0  0  0  0  0  0  0  0  0  0
   -1.9504   -0.5533    0.8729 H   0  0  0  0  0  0  0  0  0  0  0  0
   -0.4965   -0.9200    1.8166 H   0  0  0  0  0  0  0  0  0  0  0  0
   -0.8118   -1.7729    0.2910 H   0  0  0  0  0  0  0  0  0  0  0  0
    6.8196    0.1321    0.7791 H   0  0  0  0  0  0  0  0  0  0  0  0
    4.8910    1.5957    1.4878 H   0  0  0  0  0  0  0  0  0  0  0  0
    1.1315   -3.3463    0.4057 H   0  0  0  0  0  0  0  0  0  0  0  0
   -0.0489   -5.6111   -4.3608 H   0  0  0  0  0  0  0  0  0  0  0  0
   -0.6012   -7.2587   -2.5339 H   0  0  0  0  0  0  0  0  0  0  0  0
   -0.0102   -6.1074   -0.1596 H   0  0  0  0  0  0  0  0  0  0  0  0
    0.9867   -2.9675   -4.6036 H   0  0  0  0  0  0  0  0  0  0  0  0
    1.8112   -1.0879   -3.1873 H   0  0  0  0  0  0  0  0  0  0  0  0
  1  2  1  0
  1 27  1  0
  1 28  1  0
  1 29  1  0
  2  3  1  0
  2  4  1  0
  2  5  1  0
  3 30  1  0
  3 31  1  0
  3 32  1  0
  4 33  1  0
  4 34  1  0
  4 35  1  0
  5  6  2  0
  5 17  1  0
  6  7  1  0
  7  8  2  0
  7 12  1  0
  8  9  1  0
  8 17  1  0
  9 10  2  0
 10 11  1  0
 10 13  1  0
 11 12  2  0
 11 36  1  0
 12 37  1  0
 13 14  1  0
 13 15  1  0
 13 16  1  0
 17 18  1  0
 18 19  2  0
 18 26  1  0
 19 20  1  0
 19 38  1  0
 20 21  2  0
 20 24  1  0
 21 22  1  0
 21 25  1  0
 22 23  1  0
 22 39  1  0
 23 24  2  0
 23 40  1  0
 24 41  1  0
 25 26  2  0
 25 42  1  0
 26 43  1  0
M  END
>  <group_name>  (1) 
JNS

>  <molecule_index>  (1) 
01795

>  <conformer_index>  (1) 
07

>  <method>  (1) 
b3lyp-d3bj

>  <basis>  (1) 
dzvp

>  <program>  (1) 
psi4

>  <initial_energy>  (1) 
-786216.5546279729 kilocalorie / mole

>  <final_energy>  (1) 
-786318.4607420709 kilocalorie / mole

$$$$
