JNS-01795-00
     RDKit          3D

 43 46  0  0  0  0  0  0  0  0999 V2000
   -0.3675    1.8189    0.4201 C   0  0  0  0  0  0  0  0  0  0  0  0
   -0.1149    0.3986   -0.1216 C   0  0  0  0  0  0  0  0  0  0  0  0
   -0.8167   -0.6178    0.8092 C   0  0  0  0  0  0  0  0  0  0  0  0
   -0.7079    0.2984   -1.5451 C   0  0  0  0  0  0  0  0  0  0  0  0
    1.3835    0.1518   -0.1392 C   0  0  0  0  0  0  0  0  0  0  0  0
    2.2590    1.0228    0.3335 N   0  0  0  0  0  0  0  0  0  0  0  0
    3.5054    0.4551    0.1494 C   0  0  0  0  0  0  0  0  0  0  0  0
    3.3688   -0.8168   -0.4641 C   0  0  0  0  0  0  0  0  0  0  0  0
    4.3425   -1.6489   -0.7979 N   0  0  0  0  0  0  0  0  0  0  0  0
    5.5709   -1.1980   -0.5025 C   0  0  0  0  0  0  0  0  0  0  0  0
    5.8484    0.0378    0.1058 C   0  0  0  0  0  0  0  0  0  0  0  0
    4.7951    0.8954    0.4451 C   0  0  0  0  0  0  0  0  0  0  0  0
    6.6891   -2.1426   -0.8918 C   0  0  0  0  0  0  0  0  0  0  0  0
    6.7222   -2.3576   -2.2296 F   0  0  0  0  0  0  0  0  0  0  0  0
    7.9072   -1.6548   -0.5388 F   0  0  0  0  0  0  0  0  0  0  0  0
    6.5592   -3.3527   -0.2994 F   0  0  0  0  0  0  0  0  0  0  0  0
    2.0024   -1.0000   -0.6406 N   0  0  0  0  0  0  0  0  0  0  0  0
    1.4510   -2.1817   -1.2405 C   0  0  0  0  0  0  0  0  0  0  0  0
    1.0862   -3.2514   -0.4340 C   0  0  0  0  0  0  0  0  0  0  0  0
    0.5831   -4.4136   -1.0432 C   0  0  0  0  0  0  0  0  0  0  0  0
    0.4849   -4.4594   -2.4652 C   0  0  0  0  0  0  0  0  0  0  0  0
   -0.0278   -5.6987   -2.7977 N   0  0  0  0  0  0  0  0  0  0  0  0
   -0.2475   -6.4306   -1.6402 C   0  0  0  0  0  0  0  0  0  0  0  0
    0.1113   -5.6786   -0.5469 C   0  0  0  0  0  0  0  0  0  0  0  0
    0.8803   -3.3885   -3.2769 C   0  0  0  0  0  0  0  0  0  0  0  0
    1.3687   -2.2497   -2.6479 C   0  0  0  0  0  0  0  0  0  0  0  0
   -1.4462    2.0066    0.4372 H   0  0  0  0  0  0  0  0  0  0  0  0
    0.0253    1.9359    1.4325 H   0  0  0  0  0  0  0  0  0  0  0  0
    0.1094    2.5753   -0.2080 H   0  0  0  0  0  0  0  0  0  0  0  0
   -0.7580   -1.6367    0.4228 H   0  0  0  0  0  0  0  0  0  0  0  0
   -1.8759   -0.3537    0.8988 H   0  0  0  0  0  0  0  0  0  0  0  0
   -0.3774   -0.5977    1.8119 H   0  0  0  0  0  0  0  0  0  0  0  0
   -1.7631    0.5903   -1.5161 H   0  0  0  0  0  0  0  0  0  0  0  0
   -0.1902    0.9744   -2.2338 H   0  0  0  0  0  0  0  0  0  0  0  0
   -0.6519   -0.7142   -1.9475 H   0  0  0  0  0  0  0  0  0  0  0  0
    6.8758    0.3175    0.3073 H   0  0  0  0  0  0  0  0  0  0  0  0
    4.9730    1.8581    0.9156 H   0  0  0  0  0  0  0  0  0  0  0  0
    1.1986   -3.1822    0.6440 H   0  0  0  0  0  0  0  0  0  0  0  0
   -0.1879   -6.0326   -3.7373 H   0  0  0  0  0  0  0  0  0  0  0  0
   -0.6446   -7.4357   -1.6928 H   0  0  0  0  0  0  0  0  0  0  0  0
    0.0492   -5.9929    0.4865 H   0  0  0  0  0  0  0  0  0  0  0  0
    0.8181   -3.4403   -4.3607 H   0  0  0  0  0  0  0  0  0  0  0  0
    1.6958   -1.3964   -3.2336 H   0  0  0  0  0  0  0  0  0  0  0  0
  1  2  1  0
  1 27  1  0
  1 28  1  0
  1 29  1  0
  2  3  1  0
  2  4  1  0
  2  5  1  0
  3 30  1  0
  3 31  1  0
  3 32  1  0
  4 33  1  0
  4 34  1  0
  4 35  1  0
  5  6  2  0
  5 17  1  0
  6  7  1  0
  7  8  2  0
  7 12  1  0
  8  9  1  0
  8 17  1  0
  9 10  2  0
 10 11  1  0
 10 13  1  0
 11 12  2  0
 11 36  1  0
 12 37  1  0
 13 14  1  0
 13 15  1  0
 13 16  1  0
 17 18  1  0
 18 19  2  0
 18 26  1  0
 19 20  1  0
 19 38  1  0
 20 21  2  0
 20 24  1  0
 21 22  1  0
 21 25  1  0
 22 23  1  0
 22 39  1  0
 23 24  2  0
 23 40  1  0
 24 41  1  0
 25 26  2  0
 25 42  1  0
 26 43  1  0
M  END
>  <group_name>  (1) 
JNS

>  <molecule_index>  (1) 
01795

>  <conformer_index>  (1) 
00

>  <method>  (1) 
b3lyp-d3bj

>  <basis>  (1) 
dzvp

>  <program>  (1) 
psi4

>  <initial_energy>  (1) 
-786277.656231211 kilocalorie / mole

>  <final_energy>  (1) 
-786318.460685333 kilocalorie / mole

$$$$
