JNS-01861-07
     RDKit          3D

 34 37  0  0  0  0  0  0  0  0999 V2000
   -2.6159   -1.8934   -1.8150 C   0  0  0  0  0  0  0  0  0  0  0  0
   -1.9803   -0.9919   -0.7922 C   0  0  0  0  0  0  0  0  0  0  0  0
   -0.6232   -0.9555   -0.5586 C   0  0  0  0  0  0  0  0  0  0  0  0
   -0.0285   -0.0878    0.4176 C   0  0  0  0  0  0  0  0  0  0  0  0
   -0.7830    0.7879    1.1669 C   0  0  0  0  0  0  0  0  0  0  0  0
   -2.1822    0.7923    0.9372 C   0  0  0  0  0  0  0  0  0  0  0  0
   -2.7788   -0.0966   -0.0212 C   0  0  0  0  0  0  0  0  0  0  0  0
   -4.1211    0.0592   -0.0793 N   0  0  0  0  0  0  0  0  0  0  0  0
   -4.3615    1.0288    0.8280 N   0  0  0  0  0  0  0  0  0  0  0  0
   -3.2635    1.5085    1.4658 C   0  0  0  0  0  0  0  0  0  0  0  0
    1.3858   -0.1527    0.5849 N   0  0  0  0  0  0  0  0  0  0  0  0
    2.1467   -1.3160    0.5274 C   0  0  0  0  0  0  0  0  0  0  0  0
    3.4815   -1.0372    0.6953 C   0  0  0  0  0  0  0  0  0  0  0  0
    3.5853    0.3821    0.8735 C   0  0  0  0  0  0  0  0  0  0  0  0
    2.2557    0.9086    0.8032 C   0  0  0  0  0  0  0  0  0  0  0  0
    1.9162    2.1864    0.9215 N   0  0  0  0  0  0  0  0  0  0  0  0
    2.9331    3.0298    1.1237 C   0  0  0  0  0  0  0  0  0  0  0  0
    4.2831    2.6496    1.2147 C   0  0  0  0  0  0  0  0  0  0  0  0
    4.6195    1.3010    1.0867 C   0  0  0  0  0  0  0  0  0  0  0  0
    2.5187    4.4803    1.2608 C   0  0  0  0  0  0  0  0  0  0  0  0
    3.5847    5.2896    1.4902 F   0  0  0  0  0  0  0  0  0  0  0  0
    1.9043    4.9388    0.1452 F   0  0  0  0  0  0  0  0  0  0  0  0
    1.6543    4.6608    2.2903 F   0  0  0  0  0  0  0  0  0  0  0  0
   -3.1618   -1.3072   -2.5619 H   0  0  0  0  0  0  0  0  0  0  0  0
   -3.3464   -2.5597   -1.3435 H   0  0  0  0  0  0  0  0  0  0  0  0
   -1.8671   -2.5029   -2.3278 H   0  0  0  0  0  0  0  0  0  0  0  0
    0.0311   -1.5876   -1.1527 H   0  0  0  0  0  0  0  0  0  0  0  0
   -0.3200    1.4522    1.8859 H   0  0  0  0  0  0  0  0  0  0  0  0
   -5.3186    1.3287    0.9661 H   0  0  0  0  0  0  0  0  0  0  0  0
   -3.3260    2.2898    2.2104 H   0  0  0  0  0  0  0  0  0  0  0  0
    1.6563   -2.2705    0.3964 H   0  0  0  0  0  0  0  0  0  0  0  0
    4.2826   -1.7642    0.7070 H   0  0  0  0  0  0  0  0  0  0  0  0
    5.0454    3.4007    1.3847 H   0  0  0  0  0  0  0  0  0  0  0  0
    5.6556    0.9798    1.1527 H   0  0  0  0  0  0  0  0  0  0  0  0
  1  2  1  0
  1 24  1  0
  1 25  1  0
  1 26  1  0
  2  3  2  0
  2  7  1  0
  3  4  1  0
  3 27  1  0
  4  5  2  0
  4 11  1  0
  5  6  1  0
  5 28  1  0
  6  7  1  0
  6 10  2  0
  7  8  2  0
  8  9  1  0
  9 10  1  0
  9 29  1  0
 10 30  1  0
 11 12  1  0
 11 15  1  0
 12 13  2  0
 12 31  1  0
 13 14  1  0
 13 32  1  0
 14 15  2  0
 14 19  1  0
 15 16  1  0
 16 17  2  0
 17 18  1  0
 17 20  1  0
 18 19  2  0
 18 33  1  0
 19 34  1  0
 20 21  1  0
 20 22  1  0
 20 23  1  0
M  END
>  <group_name>  (1) 
JNS

>  <molecule_index>  (1) 
01861

>  <conformer_index>  (1) 
07

>  <method>  (1) 
b3lyp-d3bj

>  <basis>  (1) 
dzvp

>  <program>  (1) 
psi4

>  <initial_energy>  (1) 
-712218.8778819941 kilocalorie / mole

>  <final_energy>  (1) 
-712273.7677080804 kilocalorie / mole

$$$$
