JNS-01448-07
     RDKit          3D

 43 47  0  0  0  0  0  0  0  0999 V2000
    0.1788   -3.0170    1.4978 F   0  0  0  0  0  0  0  0  0  0  0  0
   -0.6996   -2.1975    2.1201 C   0  0  0  0  0  0  0  0  0  0  0  0
   -0.1496   -1.8515    3.3147 F   0  0  0  0  0  0  0  0  0  0  0  0
   -1.8146   -2.8907    2.3720 F   0  0  0  0  0  0  0  0  0  0  0  0
   -1.0005   -0.9782    1.2790 C   0  0  0  0  0  0  0  0  0  0  0  0
   -2.2237   -0.5434    1.0790 N   0  0  0  0  0  0  0  0  0  0  0  0
   -2.0727    0.5545    0.2504 C   0  0  0  0  0  0  0  0  0  0  0  0
   -0.6989    0.7604   -0.0384 C   0  0  0  0  0  0  0  0  0  0  0  0
   -0.1828    1.7035   -0.8135 N   0  0  0  0  0  0  0  0  0  0  0  0
   -1.0923    2.5233   -1.3518 C   0  0  0  0  0  0  0  0  0  0  0  0
   -2.4821    2.4366   -1.1430 C   0  0  0  0  0  0  0  0  0  0  0  0
   -2.9976    1.4304   -0.3227 C   0  0  0  0  0  0  0  0  0  0  0  0
   -0.5033    3.6015   -2.2430 C   0  0  0  0  0  0  0  0  0  0  0  0
    0.3052    4.4340   -1.5497 F   0  0  0  0  0  0  0  0  0  0  0  0
    0.2349    3.0679   -3.2449 F   0  0  0  0  0  0  0  0  0  0  0  0
   -1.4689    4.3616   -2.8160 F   0  0  0  0  0  0  0  0  0  0  0  0
   -0.0138   -0.2379    0.6458 N   0  0  0  0  0  0  0  0  0  0  0  0
    1.4098   -0.4156    0.6249 C   0  0  0  0  0  0  0  0  0  0  0  0
    2.1380   -0.3704    1.8026 C   0  0  0  0  0  0  0  0  0  0  0  0
    3.5306   -0.5409    1.7051 C   0  0  0  0  0  0  0  0  0  0  0  0
    4.1370   -0.7228    0.4345 C   0  0  0  0  0  0  0  0  0  0  0  0
    5.4816   -0.8075    0.6777 N   0  0  0  0  0  0  0  0  0  0  0  0
    5.7829   -0.6841    2.0005 N   0  0  0  0  0  0  0  0  0  0  0  0
    4.6264   -0.5321    2.6273 C   0  0  0  0  0  0  0  0  0  0  0  0
    3.3972   -0.7492   -0.7697 C   0  0  0  0  0  0  0  0  0  0  0  0
    2.0220   -0.5985   -0.6362 C   0  0  0  0  0  0  0  0  0  0  0  0
    4.0431   -0.8986   -2.0932 C   0  0  0  0  0  0  0  0  0  0  0  0
    3.6585   -0.0749   -3.1654 C   0  0  0  0  0  0  0  0  0  0  0  0
    4.2639   -0.2100   -4.4164 C   0  0  0  0  0  0  0  0  0  0  0  0
    5.2649   -1.1669   -4.6165 C   0  0  0  0  0  0  0  0  0  0  0  0
    5.6528   -1.9933   -3.5566 C   0  0  0  0  0  0  0  0  0  0  0  0
    5.0476   -1.8600   -2.3046 C   0  0  0  0  0  0  0  0  0  0  0  0
   -3.1409    3.1491   -1.6250 H   0  0  0  0  0  0  0  0  0  0  0  0
   -4.0634    1.3288   -0.1421 H   0  0  0  0  0  0  0  0  0  0  0  0
    1.6513   -0.2018    2.7570 H   0  0  0  0  0  0  0  0  0  0  0  0
    6.2325   -0.8673    0.0038 H   0  0  0  0  0  0  0  0  0  0  0  0
    4.6071   -0.4200    3.7042 H   0  0  0  0  0  0  0  0  0  0  0  0
    1.3946   -0.6280   -1.5206 H   0  0  0  0  0  0  0  0  0  0  0  0
    2.8999    0.6875   -3.0083 H   0  0  0  0  0  0  0  0  0  0  0  0
    3.9605    0.4398   -5.2330 H   0  0  0  0  0  0  0  0  0  0  0  0
    5.7372   -1.2689   -5.5898 H   0  0  0  0  0  0  0  0  0  0  0  0
    6.4187   -2.7497   -3.7071 H   0  0  0  0  0  0  0  0  0  0  0  0
    5.3235   -2.5374   -1.5000 H   0  0  0  0  0  0  0  0  0  0  0  0
  1  2  1  0
  2  3  1  0
  2  4  1  0
  2  5  1  0
  5  6  2  0
  5 17  1  0
  6  7  1  0
  7  8  2  0
  7 12  1  0
  8  9  1  0
  8 17  1  0
  9 10  2  0
 10 11  1  0
 10 13  1  0
 11 12  2  0
 11 33  1  0
 12 34  1  0
 13 14  1  0
 13 15  1  0
 13 16  1  0
 17 18  1  0
 18 19  2  0
 18 26  1  0
 19 20  1  0
 19 35  1  0
 20 21  2  0
 20 24  1  0
 21 22  1  0
 21 25  1  0
 22 23  1  0
 22 36  1  0
 23 24  2  0
 24 37  1  0
 25 26  2  0
 25 27  1  0
 26 38  1  0
 27 28  2  0
 27 32  1  0
 28 29  1  0
 28 39  1  0
 29 30  2  0
 29 40  1  0
 30 31  1  0
 30 41  1  0
 31 32  2  0
 31 42  1  0
 32 43  1  0
M  END
>  <group_name>  (1) 
JNS

>  <molecule_index>  (1) 
01448

>  <conformer_index>  (1) 
07

>  <method>  (1) 
b3lyp-d3bj

>  <basis>  (1) 
dzvp

>  <program>  (1) 
psi4

>  <initial_energy>  (1) 
-1054166.7382812174 kilocalorie / mole

>  <final_energy>  (1) 
-1054231.3011499075 kilocalorie / mole

$$$$
