JNS-01558-07
     RDKit          3D

 42 46  0  0  0  0  0  0  0  0999 V2000
   -0.4157    0.2721    1.2704 F   0  0  0  0  0  0  0  0  0  0  0  0
    0.1014   -0.3240    0.1717 C   0  0  0  0  0  0  0  0  0  0  0  0
   -0.3149   -1.6127    0.1841 F   0  0  0  0  0  0  0  0  0  0  0  0
   -0.4675    0.2684   -0.9098 F   0  0  0  0  0  0  0  0  0  0  0  0
    1.6165   -0.2247    0.1348 C   0  0  0  0  0  0  0  0  0  0  0  0
    2.2268   -0.7998    1.1536 N   0  0  0  0  0  0  0  0  0  0  0  0
    3.5769   -0.7320    1.1317 C   0  0  0  0  0  0  0  0  0  0  0  0
    4.5286   -1.2231    2.0543 C   0  0  0  0  0  0  0  0  0  0  0  0
    5.7366   -0.8690    1.5137 N   0  0  0  0  0  0  0  0  0  0  0  0
    5.6597   -0.1659    0.3438 N   0  0  0  0  0  0  0  0  0  0  0  0
    4.3392   -0.0799    0.1064 C   0  0  0  0  0  0  0  0  0  0  0  0
    3.6469    0.5287   -0.9676 C   0  0  0  0  0  0  0  0  0  0  0  0
    2.2696    0.4467   -0.9432 C   0  0  0  0  0  0  0  0  0  0  0  0
    7.0414   -1.2158    1.9836 C   0  0  0  0  0  0  0  0  0  0  0  0
    8.0227   -0.2237    2.0456 C   0  0  0  0  0  0  0  0  0  0  0  0
    9.3018   -0.5570    2.4972 C   0  0  0  0  0  0  0  0  0  0  0  0
    9.5943   -1.8702    2.8814 C   0  0  0  0  0  0  0  0  0  0  0  0
    8.6052   -2.8569    2.8011 C   0  0  0  0  0  0  0  0  0  0  0  0
    7.3254   -2.5356    2.3459 C   0  0  0  0  0  0  0  0  0  0  0  0
    4.3037   -1.8796    3.3424 C   0  0  0  0  0  0  0  0  0  0  0  0
    5.1118   -1.6200    4.4646 C   0  0  0  0  0  0  0  0  0  0  0  0
    4.8648   -2.2263    5.7001 C   0  0  0  0  0  0  0  0  0  0  0  0
    3.7806   -3.0954    5.7948 C   0  0  0  0  0  0  0  0  0  0  0  0
    3.3204   -3.8193    6.9008 N   0  0  0  0  0  0  0  0  0  0  0  0
    2.1887   -4.5754    6.6082 C   0  0  0  0  0  0  0  0  0  0  0  0
    1.5971   -5.2938    7.3947 O   0  0  0  0  0  0  0  0  0  0  0  0
    1.8649   -4.3137    5.1290 C   0  0  0  0  0  0  0  0  0  0  0  0
    2.9456   -3.3565    4.6913 C   0  0  0  0  0  0  0  0  0  0  0  0
    3.1975   -2.7521    3.4729 C   0  0  0  0  0  0  0  0  0  0  0  0
    4.1780    1.0315   -1.7706 H   0  0  0  0  0  0  0  0  0  0  0  0
    1.6733    0.8861   -1.7343 H   0  0  0  0  0  0  0  0  0  0  0  0
    7.7778    0.7869    1.7362 H   0  0  0  0  0  0  0  0  0  0  0  0
   10.0690    0.2104    2.5494 H   0  0  0  0  0  0  0  0  0  0  0  0
   10.5898   -2.1252    3.2341 H   0  0  0  0  0  0  0  0  0  0  0  0
    8.8309   -3.8813    3.0840 H   0  0  0  0  0  0  0  0  0  0  0  0
    6.5555   -3.2962    2.2731 H   0  0  0  0  0  0  0  0  0  0  0  0
    5.9398   -0.9243    4.3832 H   0  0  0  0  0  0  0  0  0  0  0  0
    5.4979   -2.0101    6.5561 H   0  0  0  0  0  0  0  0  0  0  0  0
    3.7336   -3.8126    7.8252 H   0  0  0  0  0  0  0  0  0  0  0  0
    0.8563   -3.8963    5.0482 H   0  0  0  0  0  0  0  0  0  0  0  0
    1.8686   -5.2630    4.5843 H   0  0  0  0  0  0  0  0  0  0  0  0
    2.5518   -2.9311    2.6194 H   0  0  0  0  0  0  0  0  0  0  0  0
  1  2  1  0
  2  3  1  0
  2  4  1  0
  2  5  1  0
  5  6  2  0
  5 13  1  0
  6  7  1  0
  7  8  2  0
  7 11  1  0
  8  9  1  0
  8 20  1  0
  9 10  1  0
  9 14  1  0
 10 11  2  0
 11 12  1  0
 12 13  2  0
 12 30  1  0
 13 31  1  0
 14 15  2  0
 14 19  1  0
 15 16  1  0
 15 32  1  0
 16 17  2  0
 16 33  1  0
 17 18  1  0
 17 34  1  0
 18 19  2  0
 18 35  1  0
 19 36  1  0
 20 21  2  0
 20 29  1  0
 21 22  1  0
 21 37  1  0
 22 23  2  0
 22 38  1  0
 23 24  1  0
 23 28  1  0
 24 25  1  0
 24 39  1  0
 25 26  2  0
 25 27  1  0
 27 28  1  0
 27 40  1  0
 27 41  1  0
 28 29  2  0
 29 42  1  0
M  END
>  <group_name>  (1) 
JNS

>  <molecule_index>  (1) 
01558

>  <conformer_index>  (1) 
07

>  <method>  (1) 
b3lyp-d3bj

>  <basis>  (1) 
dzvp

>  <program>  (1) 
psi4

>  <initial_energy>  (1) 
-879830.9478744429 kilocalorie / mole

>  <final_energy>  (1) 
-879837.5147597546 kilocalorie / mole

$$$$
