JNS-00690-04
     RDKit          3D

 38 42  0  0  0  0  0  0  0  0999 V2000
   -0.8864    0.4474    0.7253 O   0  0  0  0  0  0  0  0  0  0  0  0
   -0.1251   -0.5094    0.0228 C   0  0  0  0  0  0  0  0  0  0  0  0
   -0.7171   -1.1283   -1.2195 C   0  0  0  0  0  0  0  0  0  0  0  0
   -0.6763   -1.9172    0.0718 C   0  0  0  0  0  0  0  0  0  0  0  0
    1.3480   -0.3115    0.0745 C   0  0  0  0  0  0  0  0  0  0  0  0
    2.1568   -0.4741   -0.9581 N   0  0  0  0  0  0  0  0  0  0  0  0
    3.4247   -0.1944   -0.4795 C   0  0  0  0  0  0  0  0  0  0  0  0
    3.3585    0.1591    0.8950 C   0  0  0  0  0  0  0  0  0  0  0  0
    4.3701    0.5025    1.6763 N   0  0  0  0  0  0  0  0  0  0  0  0
    5.5624    0.4987    1.0626 C   0  0  0  0  0  0  0  0  0  0  0  0
    5.7696    0.1678   -0.2872 C   0  0  0  0  0  0  0  0  0  0  0  0
    4.6795   -0.1893   -1.0888 C   0  0  0  0  0  0  0  0  0  0  0  0
    6.7220    0.8896    1.9566 C   0  0  0  0  0  0  0  0  0  0  0  0
    6.8739    0.0265    2.9880 F   0  0  0  0  0  0  0  0  0  0  0  0
    7.8970    0.9098    1.2763 F   0  0  0  0  0  0  0  0  0  0  0  0
    6.5501    2.1221    2.4910 F   0  0  0  0  0  0  0  0  0  0  0  0
    2.0134    0.0687    1.2378 N   0  0  0  0  0  0  0  0  0  0  0  0
    1.4846    0.2423    2.5562 C   0  0  0  0  0  0  0  0  0  0  0  0
    0.7983   -0.7955    3.1651 C   0  0  0  0  0  0  0  0  0  0  0  0
    0.2822   -0.5773    4.4546 C   0  0  0  0  0  0  0  0  0  0  0  0
    0.4980    0.6701    5.0981 C   0  0  0  0  0  0  0  0  0  0  0  0
   -0.1094    0.5635    6.3214 N   0  0  0  0  0  0  0  0  0  0  0  0
   -0.6945   -0.6527    6.5107 N   0  0  0  0  0  0  0  0  0  0  0  0
   -0.4679   -1.3438    5.4037 C   0  0  0  0  0  0  0  0  0  0  0  0
    1.2144    1.7123    4.4847 C   0  0  0  0  0  0  0  0  0  0  0  0
    1.6990    1.4816    3.2074 C   0  0  0  0  0  0  0  0  0  0  0  0
   -0.8687    1.2718    0.2115 H   0  0  0  0  0  0  0  0  0  0  0  0
   -1.6790   -0.7329   -1.5298 H   0  0  0  0  0  0  0  0  0  0  0  0
   -0.0310   -1.3996   -2.0138 H   0  0  0  0  0  0  0  0  0  0  0  0
   -1.6001   -2.0322    0.6305 H   0  0  0  0  0  0  0  0  0  0  0  0
    0.0322   -2.7360    0.1493 H   0  0  0  0  0  0  0  0  0  0  0  0
    6.7721    0.1938   -0.6974 H   0  0  0  0  0  0  0  0  0  0  0  0
    4.8031   -0.4494   -2.1360 H   0  0  0  0  0  0  0  0  0  0  0  0
    0.6601   -1.7422    2.6531 H   0  0  0  0  0  0  0  0  0  0  0  0
   -0.1604    1.2496    7.0613 H   0  0  0  0  0  0  0  0  0  0  0  0
   -0.8430   -2.3560    5.3165 H   0  0  0  0  0  0  0  0  0  0  0  0
    1.3875    2.6616    4.9833 H   0  0  0  0  0  0  0  0  0  0  0  0
    2.2631    2.2519    2.6923 H   0  0  0  0  0  0  0  0  0  0  0  0
  1  2  1  0
  1 27  1  0
  2  3  1  0
  2  4  1  0
  2  5  1  0
  3  4  1  0
  3 28  1  0
  3 29  1  0
  4 30  1  0
  4 31  1  0
  5  6  2  0
  5 17  1  0
  6  7  1  0
  7  8  2  0
  7 12  1  0
  8  9  1  0
  8 17  1  0
  9 10  2  0
 10 11  1  0
 10 13  1  0
 11 12  2  0
 11 32  1  0
 12 33  1  0
 13 14  1  0
 13 15  1  0
 13 16  1  0
 17 18  1  0
 18 19  2  0
 18 26  1  0
 19 20  1  0
 19 34  1  0
 20 21  2  0
 20 24  1  0
 21 22  1  0
 21 25  1  0
 22 23  1  0
 22 35  1  0
 23 24  2  0
 24 36  1  0
 25 26  2  0
 25 37  1  0
 26 38  1  0
M  END
>  <group_name>  (1) 
JNS

>  <molecule_index>  (1) 
00690

>  <conformer_index>  (1) 
04

>  <method>  (1) 
b3lyp-d3bj

>  <basis>  (1) 
dzvp

>  <program>  (1) 
psi4

>  <initial_energy>  (1) 
-818073.1058885679 kilocalorie / mole

>  <final_energy>  (1) 
-818124.7942260886 kilocalorie / mole

$$$$
