JNS-02392-00
     RDKit          3D

 48 51  0  0  0  0  0  0  0  0999 V2000
   -4.0572   -0.5879   -0.2445 C   0  0  0  0  0  0  0  0  0  0  0  0
   -2.5968   -0.3197    0.0065 C   0  0  0  0  0  0  0  0  0  0  0  0
   -2.1651    0.5994    0.9710 C   0  0  0  0  0  0  0  0  0  0  0  0
   -0.7846    0.7860    1.1235 C   0  0  0  0  0  0  0  0  0  0  0  0
   -0.2134    1.7574    2.1220 C   0  0  0  0  0  0  0  0  0  0  0  0
    0.0971    0.1035    0.3811 N   0  0  0  0  0  0  0  0  0  0  0  0
   -0.4206   -0.7647   -0.5109 C   0  0  0  0  0  0  0  0  0  0  0  0
   -1.7247   -1.0068   -0.7455 N   0  0  0  0  0  0  0  0  0  0  0  0
    0.4813   -1.4862   -1.2408 N   0  0  0  0  0  0  0  0  0  0  0  0
    0.2613   -2.1255   -2.5475 C   0  0  0  0  0  0  0  0  0  0  0  0
    1.7879   -1.9949   -2.8132 C   0  0  2  0  0  0  0  0  0  0  0  0
    2.6095   -3.2662   -2.6238 C   0  0  0  0  0  0  0  0  0  0  0  0
    4.0722   -2.9217   -2.3072 C   0  0  0  0  0  0  0  0  0  0  0  0
    4.1542   -1.8580   -1.2853 N   0  0  0  0  0  0  0  0  0  0  0  0
    2.9331   -1.5373   -0.5370 C   0  0  0  0  0  0  0  0  0  0  0  0
    1.8653   -1.0967   -1.5409 C   0  0  2  0  0  0  0  0  0  0  0  0
    5.2812   -1.1261   -1.0622 C   0  0  0  0  0  0  0  0  0  0  0  0
    5.3952   -0.2690   -0.1858 O   0  0  0  0  0  0  0  0  0  0  0  0
    6.4884   -1.4538   -1.9163 C   0  0  0  0  0  0  0  0  0  0  0  0
    7.4783   -2.2688   -1.3502 C   0  0  0  0  0  0  0  0  0  0  0  0
    8.6416   -2.5393   -2.0642 C   0  0  0  0  0  0  0  0  0  0  0  0
    8.7873   -1.9753   -3.3366 C   0  0  0  0  0  0  0  0  0  0  0  0
    7.8624   -1.1877   -3.8885 N   0  0  0  0  0  0  0  0  0  0  0  0
    6.7490   -0.9348   -3.1922 C   0  0  0  0  0  0  0  0  0  0  0  0
    5.7591   -0.0606   -3.9523 C   0  0  0  0  0  0  0  0  0  0  0  0
    4.7926    0.4500   -3.1542 F   0  0  0  0  0  0  0  0  0  0  0  0
    5.1224   -0.7911   -4.9140 F   0  0  0  0  0  0  0  0  0  0  0  0
    6.3628    0.9682   -4.5676 F   0  0  0  0  0  0  0  0  0  0  0  0
   -4.2784   -1.6450   -0.0655 H   0  0  0  0  0  0  0  0  0  0  0  0
   -4.3005   -0.3809   -1.2915 H   0  0  0  0  0  0  0  0  0  0  0  0
   -4.6985    0.0219    0.3964 H   0  0  0  0  0  0  0  0  0  0  0  0
   -2.8757    1.1532    1.5757 H   0  0  0  0  0  0  0  0  0  0  0  0
    0.4155    2.4924    1.6100 H   0  0  0  0  0  0  0  0  0  0  0  0
   -0.9977    2.2820    2.6731 H   0  0  0  0  0  0  0  0  0  0  0  0
    0.4275    1.2271    2.8336 H   0  0  0  0  0  0  0  0  0  0  0  0
   -0.3711   -1.5275   -3.2136 H   0  0  0  0  0  0  0  0  0  0  0  0
   -0.1442   -3.1408   -2.4883 H   0  0  0  0  0  0  0  0  0  0  0  0
    2.0552   -1.4851   -3.7411 H   0  0  0  0  0  0  0  0  0  0  0  0
    2.1799   -3.8608   -1.8105 H   0  0  0  0  0  0  0  0  0  0  0  0
    2.5860   -3.8951   -3.5197 H   0  0  0  0  0  0  0  0  0  0  0  0
    4.5605   -2.5881   -3.2241 H   0  0  0  0  0  0  0  0  0  0  0  0
    4.6020   -3.8187   -1.9621 H   0  0  0  0  0  0  0  0  0  0  0  0
    3.1672   -0.7521    0.1783 H   0  0  0  0  0  0  0  0  0  0  0  0
    2.5877   -2.4162    0.0174 H   0  0  0  0  0  0  0  0  0  0  0  0
    1.9669   -0.0280   -1.7581 H   0  0  0  0  0  0  0  0  0  0  0  0
    7.3290   -2.6734   -0.3529 H   0  0  0  0  0  0  0  0  0  0  0  0
    9.4238   -3.1673   -1.6482 H   0  0  0  0  0  0  0  0  0  0  0  0
    9.6795   -2.1605   -3.9317 H   0  0  0  0  0  0  0  0  0  0  0  0
  1  2  1  0
  1 29  1  0
  1 30  1  0
  1 31  1  0
  2  3  2  0
  2  8  1  0
  3  4  1  0
  3 32  1  0
  4  5  1  0
  4  6  2  0
  5 33  1  0
  5 34  1  0
  5 35  1  0
  6  7  1  0
  7  8  2  0
  7  9  1  0
  9 10  1  0
  9 16  1  0
 10 11  1  0
 10 36  1  0
 10 37  1  0
 11 12  1  0
 11 16  1  0
 11 38  1  6
 12 13  1  0
 12 39  1  0
 12 40  1  0
 13 14  1  0
 13 41  1  0
 13 42  1  0
 14 15  1  0
 14 17  1  0
 15 16  1  0
 15 43  1  0
 15 44  1  0
 16 45  1  6
 17 18  2  0
 17 19  1  0
 19 20  2  0
 19 24  1  0
 20 21  1  0
 20 46  1  0
 21 22  2  0
 21 47  1  0
 22 23  1  0
 22 48  1  0
 23 24  2  0
 24 25  1  0
 25 26  1  0
 25 27  1  0
 25 28  1  0
M  END
>  <group_name>  (1) 
JNS

>  <molecule_index>  (1) 
02392

>  <conformer_index>  (1) 
00

>  <method>  (1) 
b3lyp-d3bj

>  <basis>  (1) 
dzvp

>  <program>  (1) 
psi4

>  <initial_energy>  (1) 
-868958.6518965432 kilocalorie / mole

>  <final_energy>  (1) 
-869017.5317025073 kilocalorie / mole

$$$$
