JNS-00690-05
     RDKit          3D

 38 42  0  0  0  0  0  0  0  0999 V2000
   -0.9829    0.0830    0.6966 O   0  0  0  0  0  0  0  0  0  0  0  0
   -0.1570   -0.7682   -0.0642 C   0  0  0  0  0  0  0  0  0  0  0  0
   -0.6416   -2.1997   -0.1569 C   0  0  0  0  0  0  0  0  0  0  0  0
   -0.6886   -1.3013   -1.3733 C   0  0  0  0  0  0  0  0  0  0  0  0
    1.3045   -0.5158    0.0450 C   0  0  0  0  0  0  0  0  0  0  0  0
    2.1503   -0.6499   -0.9621 N   0  0  0  0  0  0  0  0  0  0  0  0
    3.3929   -0.3337   -0.4442 C   0  0  0  0  0  0  0  0  0  0  0  0
    3.2737    0.0140    0.9279 C   0  0  0  0  0  0  0  0  0  0  0  0
    4.2499    0.3904    1.7381 N   0  0  0  0  0  0  0  0  0  0  0  0
    5.4599    0.4247    1.1612 C   0  0  0  0  0  0  0  0  0  0  0  0
    5.7184    0.1023   -0.1817 C   0  0  0  0  0  0  0  0  0  0  0  0
    4.6647   -0.2879   -1.0156 C   0  0  0  0  0  0  0  0  0  0  0  0
    6.5764    0.8658    2.0860 C   0  0  0  0  0  0  0  0  0  0  0  0
    6.3749    2.1244    2.5468 F   0  0  0  0  0  0  0  0  0  0  0  0
    7.7806    0.8596    1.4587 F   0  0  0  0  0  0  0  0  0  0  0  0
    6.6847    0.0597    3.1664 F   0  0  0  0  0  0  0  0  0  0  0  0
    1.9205   -0.1195    1.2303 N   0  0  0  0  0  0  0  0  0  0  0  0
    1.3545    0.0229    2.5374 C   0  0  0  0  0  0  0  0  0  0  0  0
    1.5712    1.1942    3.2453 C   0  0  0  0  0  0  0  0  0  0  0  0
    1.0303    1.2895    4.5405 C   0  0  0  0  0  0  0  0  0  0  0  0
    0.2847    0.2067    5.0766 C   0  0  0  0  0  0  0  0  0  0  0  0
   -0.1042    0.6099    6.3266 N   0  0  0  0  0  0  0  0  0  0  0  0
    0.3369    1.8630    6.6326 N   0  0  0  0  0  0  0  0  0  0  0  0
    1.0160    2.2800    5.5747 C   0  0  0  0  0  0  0  0  0  0  0  0
    0.0776   -0.9836    4.3581 C   0  0  0  0  0  0  0  0  0  0  0  0
    0.6303   -1.0616    3.0910 C   0  0  0  0  0  0  0  0  0  0  0  0
   -0.9775    0.9576    0.2738 H   0  0  0  0  0  0  0  0  0  0  0  0
   -1.5726   -2.4063    0.3620 H   0  0  0  0  0  0  0  0  0  0  0  0
    0.1049   -2.9873   -0.1305 H   0  0  0  0  0  0  0  0  0  0  0  0
   -1.6601   -0.9216   -1.6733 H   0  0  0  0  0  0  0  0  0  0  0  0
    0.0295   -1.4695   -2.1677 H   0  0  0  0  0  0  0  0  0  0  0  0
    6.7315    0.1611   -0.5615 H   0  0  0  0  0  0  0  0  0  0  0  0
    4.8275   -0.5414   -2.0590 H   0  0  0  0  0  0  0  0  0  0  0  0
    2.1504    2.0025    2.8116 H   0  0  0  0  0  0  0  0  0  0  0  0
   -0.6442    0.1022    7.0131 H   0  0  0  0  0  0  0  0  0  0  0  0
    1.4719    3.2622    5.5813 H   0  0  0  0  0  0  0  0  0  0  0  0
   -0.4837   -1.8154    4.7738 H   0  0  0  0  0  0  0  0  0  0  0  0
    0.5050   -1.9639    2.5019 H   0  0  0  0  0  0  0  0  0  0  0  0
  1  2  1  0
  1 27  1  0
  2  3  1  0
  2  4  1  0
  2  5  1  0
  3  4  1  0
  3 28  1  0
  3 29  1  0
  4 30  1  0
  4 31  1  0
  5  6  2  0
  5 17  1  0
  6  7  1  0
  7  8  2  0
  7 12  1  0
  8  9  1  0
  8 17  1  0
  9 10  2  0
 10 11  1  0
 10 13  1  0
 11 12  2  0
 11 32  1  0
 12 33  1  0
 13 14  1  0
 13 15  1  0
 13 16  1  0
 17 18  1  0
 18 19  2  0
 18 26  1  0
 19 20  1  0
 19 34  1  0
 20 21  2  0
 20 24  1  0
 21 22  1  0
 21 25  1  0
 22 23  1  0
 22 35  1  0
 23 24  2  0
 24 36  1  0
 25 26  2  0
 25 37  1  0
 26 38  1  0
M  END
>  <group_name>  (1) 
JNS

>  <molecule_index>  (1) 
00690

>  <conformer_index>  (1) 
05

>  <method>  (1) 
b3lyp-d3bj

>  <basis>  (1) 
dzvp

>  <program>  (1) 
psi4

>  <initial_energy>  (1) 
-818071.9610023844 kilocalorie / mole

>  <final_energy>  (1) 
-818124.7527966779 kilocalorie / mole

$$$$
