JNS-02536-02
     RDKit          3D

 44 47  0  0  0  0  0  0  0  0999 V2000
   -6.3981   -4.3278    1.1613 C   0  0  0  0  0  0  0  0  0  0  0  0
   -5.2308   -3.4631    0.7466 C   0  0  0  0  0  0  0  0  0  0  0  0
   -4.4068   -2.8666    1.7157 C   0  0  0  0  0  0  0  0  0  0  0  0
   -3.3326   -2.0587    1.3486 C   0  0  0  0  0  0  0  0  0  0  0  0
   -3.0646   -1.8317   -0.0053 C   0  0  0  0  0  0  0  0  0  0  0  0
   -3.8597   -2.4300   -0.9829 C   0  0  0  0  0  0  0  0  0  0  0  0
   -4.9368   -3.2360   -0.6044 C   0  0  0  0  0  0  0  0  0  0  0  0
   -1.9863   -0.9723   -0.3842 N   0  0  0  0  0  0  0  0  0  0  0  0
   -0.6859   -1.3712   -0.4125 C   0  0  0  0  0  0  0  0  0  0  0  0
   -0.0801   -2.8845   -0.1306 S   0  0  0  0  0  0  0  0  0  0  0  0
    0.0728   -0.2227   -0.7296 N   0  0  0  0  0  0  0  0  0  0  0  0
   -0.7350    0.9100   -0.8957 C   0  0  0  0  0  0  0  0  0  0  0  0
   -0.3670    2.0194   -1.2193 O   0  0  0  0  0  0  0  0  0  0  0  0
   -2.1555    0.4613   -0.6265 C   0  0  0  0  0  0  0  0  0  0  0  0
   -3.2385    0.8852   -1.6658 C   0  0  0  0  0  0  0  0  0  0  0  0
   -4.1623    1.3440   -0.5066 C   0  0  0  0  0  0  0  0  0  0  0  0
   -2.9471    1.2678    0.4552 C   0  0  0  0  0  0  0  0  0  0  0  0
    1.4898   -0.1778   -0.7703 C   0  0  0  0  0  0  0  0  0  0  0  0
    2.0629    0.6755    0.0757 N   0  0  0  0  0  0  0  0  0  0  0  0
    3.3852    0.7814    0.0697 C   0  0  0  0  0  0  0  0  0  0  0  0
    4.2117    0.0179   -0.7784 C   0  0  0  0  0  0  0  0  0  0  0  0
    3.5892   -0.8846   -1.6569 C   0  0  0  0  0  0  0  0  0  0  0  0
    2.2036   -0.9843   -1.6602 C   0  0  0  0  0  0  0  0  0  0  0  0
    5.6424    0.1274   -0.7803 C   0  0  0  0  0  0  0  0  0  0  0  0
    6.8046    0.1846   -0.8172 N   0  0  0  0  0  0  0  0  0  0  0  0
    3.9885    1.7779    1.0571 C   0  0  0  0  0  0  0  0  0  0  0  0
    4.8324    1.1488    1.9113 F   0  0  0  0  0  0  0  0  0  0  0  0
    3.0529    2.3986    1.7837 F   0  0  0  0  0  0  0  0  0  0  0  0
    4.7067    2.7219    0.4031 F   0  0  0  0  0  0  0  0  0  0  0  0
   -7.1669   -3.7328    1.6675 H   0  0  0  0  0  0  0  0  0  0  0  0
   -6.0812   -5.1104    1.8585 H   0  0  0  0  0  0  0  0  0  0  0  0
   -6.8641   -4.8123    0.2993 H   0  0  0  0  0  0  0  0  0  0  0  0
   -4.6054   -3.0430    2.7705 H   0  0  0  0  0  0  0  0  0  0  0  0
   -2.6861   -1.6197    2.1027 H   0  0  0  0  0  0  0  0  0  0  0  0
   -3.6243   -2.2813   -2.0324 H   0  0  0  0  0  0  0  0  0  0  0  0
   -5.5493   -3.7008   -1.3732 H   0  0  0  0  0  0  0  0  0  0  0  0
   -2.8657    1.7182   -2.2666 H   0  0  0  0  0  0  0  0  0  0  0  0
   -3.6008    0.0924   -2.3224 H   0  0  0  0  0  0  0  0  0  0  0  0
   -4.9251    0.5997   -0.2666 H   0  0  0  0  0  0  0  0  0  0  0  0
   -4.6356    2.3218   -0.6179 H   0  0  0  0  0  0  0  0  0  0  0  0
   -3.0867    0.7604    1.4110 H   0  0  0  0  0  0  0  0  0  0  0  0
   -2.4711    2.2372    0.6197 H   0  0  0  0  0  0  0  0  0  0  0  0
    4.1937   -1.4876   -2.3267 H   0  0  0  0  0  0  0  0  0  0  0  0
    1.6842   -1.6646   -2.3237 H   0  0  0  0  0  0  0  0  0  0  0  0
  1  2  1  0
  1 30  1  0
  1 31  1  0
  1 32  1  0
  2  3  2  0
  2  7  1  0
  3  4  1  0
  3 33  1  0
  4  5  2  0
  4 34  1  0
  5  6  1  0
  5  8  1  0
  6  7  2  0
  6 35  1  0
  7 36  1  0
  8  9  1  0
  8 14  1  0
  9 10  2  0
  9 11  1  0
 11 12  1  0
 11 18  1  0
 12 13  2  0
 12 14  1  0
 14 15  1  0
 14 17  1  0
 15 16  1  0
 15 37  1  0
 15 38  1  0
 16 17  1  0
 16 39  1  0
 16 40  1  0
 17 41  1  0
 17 42  1  0
 18 19  2  0
 18 23  1  0
 19 20  1  0
 20 21  2  0
 20 26  1  0
 21 22  1  0
 21 24  1  0
 22 23  2  0
 22 43  1  0
 23 44  1  0
 24 25  3  0
 26 27  1  0
 26 28  1  0
 26 29  1  0
M  END
>  <group_name>  (1) 
JNS

>  <molecule_index>  (1) 
02536

>  <conformer_index>  (1) 
02

>  <method>  (1) 
b3lyp-d3bj

>  <basis>  (1) 
dzvp

>  <program>  (1) 
psi4

>  <initial_energy>  (1) 
-1106469.1874518208 kilocalorie / mole

>  <final_energy>  (1) 
-1106513.9092513593 kilocalorie / mole

$$$$
