JNS-01364-04
     RDKit          3D

 34 37  0  0  0  0  0  0  0  0999 V2000
   -1.5037   -3.3162    1.3830 F   0  0  0  0  0  0  0  0  0  0  0  0
   -0.4654   -2.5338    1.0776 C   0  0  0  0  0  0  0  0  0  0  0  0
    0.3339   -2.4400    2.1684 F   0  0  0  0  0  0  0  0  0  0  0  0
    0.2548   -3.1521    0.1069 F   0  0  0  0  0  0  0  0  0  0  0  0
   -0.9278   -1.1664    0.6298 C   0  0  0  0  0  0  0  0  0  0  0  0
   -2.1815   -0.8841    0.3678 N   0  0  0  0  0  0  0  0  0  0  0  0
   -2.1733    0.4564    0.0189 C   0  0  0  0  0  0  0  0  0  0  0  0
   -0.8528    0.9698    0.0870 C   0  0  0  0  0  0  0  0  0  0  0  0
   -0.4660    2.2114   -0.1639 N   0  0  0  0  0  0  0  0  0  0  0  0
   -1.4642    3.0281   -0.5215 C   0  0  0  0  0  0  0  0  0  0  0  0
   -2.8153    2.6491   -0.6356 C   0  0  0  0  0  0  0  0  0  0  0  0
   -3.1926    1.3326   -0.3604 C   0  0  0  0  0  0  0  0  0  0  0  0
   -1.0296    4.4560   -0.8007 C   0  0  0  0  0  0  0  0  0  0  0  0
   -2.0771    5.2345   -1.1676 F   0  0  0  0  0  0  0  0  0  0  0  0
   -0.1164    4.5139   -1.7940 F   0  0  0  0  0  0  0  0  0  0  0  0
   -0.4714    5.0234    0.2939 F   0  0  0  0  0  0  0  0  0  0  0  0
   -0.0532   -0.0995    0.4780 N   0  0  0  0  0  0  0  0  0  0  0  0
    1.3651   -0.0426    0.6730 C   0  0  0  0  0  0  0  0  0  0  0  0
    2.2061   -0.7571   -0.1642 C   0  0  0  0  0  0  0  0  0  0  0  0
    3.5864   -0.6598    0.0771 C   0  0  0  0  0  0  0  0  0  0  0  0
    4.0738    0.1597    1.1242 C   0  0  0  0  0  0  0  0  0  0  0  0
    5.4411    0.0395    1.0811 N   0  0  0  0  0  0  0  0  0  0  0  0
    5.8707   -0.7812    0.0997 N   0  0  0  0  0  0  0  0  0  0  0  0
    4.7700   -1.2134   -0.5176 C   0  0  0  0  0  0  0  0  0  0  0  0
    4.8322   -2.1116   -1.6241 C   0  0  0  0  0  0  0  0  0  0  0  0
    4.8113   -2.8422   -2.5311 N   0  0  0  0  0  0  0  0  0  0  0  0
    3.2154    0.8969    1.9574 C   0  0  0  0  0  0  0  0  0  0  0  0
    1.8568    0.7799    1.7175 C   0  0  0  0  0  0  0  0  0  0  0  0
   -3.5527    3.3844   -0.9346 H   0  0  0  0  0  0  0  0  0  0  0  0
   -4.2251    1.0050   -0.4354 H   0  0  0  0  0  0  0  0  0  0  0  0
    1.8133   -1.3659   -0.9716 H   0  0  0  0  0  0  0  0  0  0  0  0
    6.1303    0.4822    1.6752 H   0  0  0  0  0  0  0  0  0  0  0  0
    3.5911    1.5301    2.7553 H   0  0  0  0  0  0  0  0  0  0  0  0
    1.1466    1.3264    2.3290 H   0  0  0  0  0  0  0  0  0  0  0  0
  1  2  1  0
  2  3  1  0
  2  4  1  0
  2  5  1  0
  5  6  2  0
  5 17  1  0
  6  7  1  0
  7  8  2  0
  7 12  1  0
  8  9  1  0
  8 17  1  0
  9 10  2  0
 10 11  1  0
 10 13  1  0
 11 12  2  0
 11 29  1  0
 12 30  1  0
 13 14  1  0
 13 15  1  0
 13 16  1  0
 17 18  1  0
 18 19  2  0
 18 28  1  0
 19 20  1  0
 19 31  1  0
 20 21  2  0
 20 24  1  0
 21 22  1  0
 21 27  1  0
 22 23  1  0
 22 32  1  0
 23 24  2  0
 24 25  1  0
 25 26  3  0
 27 28  2  0
 27 33  1  0
 28 34  1  0
M  END
>  <group_name>  (1) 
JNS

>  <molecule_index>  (1) 
01364

>  <conformer_index>  (1) 
04

>  <method>  (1) 
b3lyp-d3bj

>  <basis>  (1) 
dzvp

>  <program>  (1) 
psi4

>  <initial_energy>  (1) 
-967054.5422207928 kilocalorie / mole

>  <final_energy>  (1) 
-967102.1358992219 kilocalorie / mole

$$$$
