JNS-01548-05
     RDKit          3D

 36 39  0  0  0  0  0  0  0  0999 V2000
   -2.9373   -0.6102    2.5040 C   0  0  0  0  0  0  0  0  0  0  0  0
   -2.1296   -0.3410    1.2618 C   0  0  0  0  0  0  0  0  0  0  0  0
   -0.7501   -0.1443    1.2986 C   0  0  0  0  0  0  0  0  0  0  0  0
   -0.0144    0.0965    0.1277 C   0  0  0  0  0  0  0  0  0  0  0  0
   -0.6178    0.1410   -1.1271 C   0  0  0  0  0  0  0  0  0  0  0  0
   -1.9993   -0.0378   -1.1644 C   0  0  0  0  0  0  0  0  0  0  0  0
   -2.7616   -0.2787    0.0038 C   0  0  0  0  0  0  0  0  0  0  0  0
   -4.1267   -0.4464   -0.1959 N   0  0  0  0  0  0  0  0  0  0  0  0
   -4.4176   -0.3435   -1.4449 C   0  0  0  0  0  0  0  0  0  0  0  0
   -5.6810   -0.4670   -1.8969 O   0  0  0  0  0  0  0  0  0  0  0  0
   -3.0622   -0.0252   -2.5644 S   0  0  0  0  0  0  0  0  0  0  0  0
    1.4063    0.2637    0.2338 N   0  0  0  0  0  0  0  0  0  0  0  0
    2.3005   -0.7112    0.6638 C   0  0  0  0  0  0  0  0  0  0  0  0
    3.5844   -0.1098    0.6015 C   0  0  0  0  0  0  0  0  0  0  0  0
    4.6846   -0.8811    0.9828 C   0  0  0  0  0  0  0  0  0  0  0  0
    4.4183   -2.1869    1.4003 C   0  0  0  0  0  0  0  0  0  0  0  0
    3.0911   -2.6575    1.4187 C   0  0  0  0  0  0  0  0  0  0  0  0
    2.0187   -1.9447    1.0562 N   0  0  0  0  0  0  0  0  0  0  0  0
    2.7729   -4.0693    1.8777 C   0  0  0  0  0  0  0  0  0  0  0  0
    2.1663   -4.7844    0.9047 F   0  0  0  0  0  0  0  0  0  0  0  0
    3.8951   -4.7433    2.2337 F   0  0  0  0  0  0  0  0  0  0  0  0
    1.9488   -4.0675    2.9503 F   0  0  0  0  0  0  0  0  0  0  0  0
    3.4771    1.1959    0.1545 N   0  0  0  0  0  0  0  0  0  0  0  0
    2.1914    1.3722   -0.0438 C   0  0  0  0  0  0  0  0  0  0  0  0
    1.6104    2.6816   -0.5237 C   0  0  0  0  0  0  0  0  0  0  0  0
    2.5234    3.6570   -0.4778 F   0  0  0  0  0  0  0  0  0  0  0  0
    1.1710    2.5851   -1.8072 F   0  0  0  0  0  0  0  0  0  0  0  0
    0.5517    3.0531    0.2327 F   0  0  0  0  0  0  0  0  0  0  0  0
   -3.4468   -1.5761    2.4310 H   0  0  0  0  0  0  0  0  0  0  0  0
   -3.7157    0.1481    2.6335 H   0  0  0  0  0  0  0  0  0  0  0  0
   -2.3012   -0.6174    3.3923 H   0  0  0  0  0  0  0  0  0  0  0  0
   -0.2245   -0.1836    2.2476 H   0  0  0  0  0  0  0  0  0  0  0  0
   -0.0301    0.3067   -2.0228 H   0  0  0  0  0  0  0  0  0  0  0  0
   -5.7142   -0.3637   -2.8617 H   0  0  0  0  0  0  0  0  0  0  0  0
    5.6942   -0.4822    0.9570 H   0  0  0  0  0  0  0  0  0  0  0  0
    5.2223   -2.8424    1.7128 H   0  0  0  0  0  0  0  0  0  0  0  0
  1  2  1  0
  1 29  1  0
  1 30  1  0
  1 31  1  0
  2  3  2  0
  2  7  1  0
  3  4  1  0
  3 32  1  0
  4  5  2  0
  4 12  1  0
  5  6  1  0
  5 33  1  0
  6  7  2  0
  6 11  1  0
  7  8  1  0
  8  9  2  0
  9 10  1  0
  9 11  1  0
 10 34  1  0
 12 13  1  0
 12 24  1  0
 13 14  1  0
 13 18  2  0
 14 15  2  0
 14 23  1  0
 15 16  1  0
 15 35  1  0
 16 17  2  0
 16 36  1  0
 17 18  1  0
 17 19  1  0
 19 20  1  0
 19 21  1  0
 19 22  1  0
 23 24  2  0
 24 25  1  0
 25 26  1  0
 25 27  1  0
 25 28  1  0
M  END
>  <group_name>  (1) 
JNS

>  <molecule_index>  (1) 
01548

>  <conformer_index>  (1) 
05

>  <method>  (1) 
b3lyp-d3bj

>  <basis>  (1) 
dzvp

>  <program>  (1) 
psi4

>  <initial_energy>  (1) 
-1196140.379727284 kilocalorie / mole

>  <final_energy>  (1) 
-1196228.8130741154 kilocalorie / mole

$$$$
