JNS-01972-02
     RDKit          3D

 38 40  0  0  0  0  0  0  0  0999 V2000
   -0.1291   -1.7770    0.6139 F   0  0  0  0  0  0  0  0  0  0  0  0
    0.1626   -0.5471    1.0685 C   0  0  0  0  0  0  0  0  0  0  0  0
   -0.2502   -0.4998    2.3709 F   0  0  0  0  0  0  0  0  0  0  0  0
   -0.6154    0.3289    0.3833 F   0  0  0  0  0  0  0  0  0  0  0  0
    1.6416   -0.2204    0.9362 C   0  0  0  0  0  0  0  0  0  0  0  0
    2.4335   -1.2803    0.7801 N   0  0  0  0  0  0  0  0  0  0  0  0
    3.7438   -1.1055    0.6130 C   0  0  0  0  0  0  0  0  0  0  0  0
    4.3618    0.1650    0.5846 C   0  0  0  0  0  0  0  0  0  0  0  0
    3.5058    1.2674    0.7681 C   0  0  0  0  0  0  0  0  0  0  0  0
    2.1328    1.1029    0.9577 C   0  0  0  0  0  0  0  0  0  0  0  0
    1.3006    2.3176    1.1827 C   0  0  0  0  0  0  0  0  0  0  0  0
    0.5817    2.4997    2.3736 C   0  0  0  0  0  0  0  0  0  0  0  0
   -0.1540    3.6682    2.5829 C   0  0  0  0  0  0  0  0  0  0  0  0
   -0.1830    4.6691    1.6064 C   0  0  0  0  0  0  0  0  0  0  0  0
    0.5343    4.4964    0.4181 C   0  0  0  0  0  0  0  0  0  0  0  0
    1.2748    3.3302    0.2107 C   0  0  0  0  0  0  0  0  0  0  0  0
    5.7419    0.3364    0.4360 N   0  0  0  0  0  0  0  0  0  0  0  0
    6.2007    1.3881   -0.4862 C   0  0  0  0  0  0  0  0  0  0  0  0
    7.6763    1.7196   -0.2432 C   0  0  0  0  0  0  0  0  0  0  0  0
    8.5566    0.5499   -0.2916 N   0  0  0  0  0  0  0  0  0  0  0  0
    8.0557   -0.4950    0.6034 C   0  0  0  0  0  0  0  0  0  0  0  0
    6.5818   -0.8623    0.3834 C   0  0  0  0  0  0  0  0  0  0  0  0
    4.3206   -2.0154    0.4825 H   0  0  0  0  0  0  0  0  0  0  0  0
    3.9084    2.2735    0.8149 H   0  0  0  0  0  0  0  0  0  0  0  0
    0.6025    1.7292    3.1377 H   0  0  0  0  0  0  0  0  0  0  0  0
   -0.7043    3.7970    3.5113 H   0  0  0  0  0  0  0  0  0  0  0  0
   -0.7601    5.5755    1.7696 H   0  0  0  0  0  0  0  0  0  0  0  0
    0.5127    5.2661   -0.3491 H   0  0  0  0  0  0  0  0  0  0  0  0
    1.8193    3.1905   -0.7199 H   0  0  0  0  0  0  0  0  0  0  0  0
    5.6000    2.2881   -0.3502 H   0  0  0  0  0  0  0  0  0  0  0  0
    6.0617    1.0550   -1.5306 H   0  0  0  0  0  0  0  0  0  0  0  0
    7.7807    2.1785    0.7471 H   0  0  0  0  0  0  0  0  0  0  0  0
    8.0128    2.4518   -0.9844 H   0  0  0  0  0  0  0  0  0  0  0  0
    8.5854    0.1909   -1.2459 H   0  0  0  0  0  0  0  0  0  0  0  0
    8.6729   -1.3918    0.4882 H   0  0  0  0  0  0  0  0  0  0  0  0
    8.1794   -0.1401    1.6333 H   0  0  0  0  0  0  0  0  0  0  0  0
    6.4660   -1.3873   -0.5826 H   0  0  0  0  0  0  0  0  0  0  0  0
    6.2712   -1.5490    1.1752 H   0  0  0  0  0  0  0  0  0  0  0  0
  1  2  1  0
  2  3  1  0
  2  4  1  0
  2  5  1  0
  5  6  2  0
  5 10  1  0
  6  7  1  0
  7  8  2  0
  7 23  1  0
  8  9  1  0
  8 17  1  0
  9 10  2  0
  9 24  1  0
 10 11  1  0
 11 12  2  0
 11 16  1  0
 12 13  1  0
 12 25  1  0
 13 14  2  0
 13 26  1  0
 14 15  1  0
 14 27  1  0
 15 16  2  0
 15 28  1  0
 16 29  1  0
 17 18  1  0
 17 22  1  0
 18 19  1  0
 18 30  1  0
 18 31  1  0
 19 20  1  0
 19 32  1  0
 19 33  1  0
 20 21  1  0
 20 34  1  0
 21 22  1  0
 21 35  1  0
 21 36  1  0
 22 37  1  0
 22 38  1  0
M  END
>  <group_name>  (1) 
JNS

>  <molecule_index>  (1) 
01972

>  <conformer_index>  (1) 
02

>  <method>  (1) 
b3lyp-d3bj

>  <basis>  (1) 
dzvp

>  <program>  (1) 
psi4

>  <initial_energy>  (1) 
-679775.2753095975 kilocalorie / mole

>  <final_energy>  (1) 
-679800.9155719989 kilocalorie / mole

$$$$
