JNS-01448-04
     RDKit          3D

 43 47  0  0  0  0  0  0  0  0999 V2000
   -1.6140   -3.0370    2.2133 F   0  0  0  0  0  0  0  0  0  0  0  0
   -0.5332   -2.3072    1.9187 C   0  0  0  0  0  0  0  0  0  0  0  0
    0.1166   -2.0361    3.0806 F   0  0  0  0  0  0  0  0  0  0  0  0
    0.2986   -3.0655    1.1648 F   0  0  0  0  0  0  0  0  0  0  0  0
   -0.9157   -1.0368    1.1966 C   0  0  0  0  0  0  0  0  0  0  0  0
   -2.1582   -0.6319    1.0694 N   0  0  0  0  0  0  0  0  0  0  0  0
   -2.0669    0.5459    0.3472 C   0  0  0  0  0  0  0  0  0  0  0  0
   -0.7089    0.8299    0.0471 C   0  0  0  0  0  0  0  0  0  0  0  0
   -0.2441    1.8671   -0.6338 N   0  0  0  0  0  0  0  0  0  0  0  0
   -1.1950    2.7068   -1.0586 C   0  0  0  0  0  0  0  0  0  0  0  0
   -2.5753    2.5477   -0.8288 C   0  0  0  0  0  0  0  0  0  0  0  0
   -3.0356    1.4429   -0.1090 C   0  0  0  0  0  0  0  0  0  0  0  0
   -0.6691    3.8968   -1.8411 C   0  0  0  0  0  0  0  0  0  0  0  0
   -1.6757    4.7093   -2.2509 F   0  0  0  0  0  0  0  0  0  0  0  0
    0.1749    4.6469   -1.0982 F   0  0  0  0  0  0  0  0  0  0  0  0
    0.0054    3.5054   -2.9458 F   0  0  0  0  0  0  0  0  0  0  0  0
    0.0258   -0.2059    0.6118 N   0  0  0  0  0  0  0  0  0  0  0  0
    1.4538   -0.3442    0.5497 C   0  0  0  0  0  0  0  0  0  0  0  0
    2.2118   -0.1686    1.6953 C   0  0  0  0  0  0  0  0  0  0  0  0
    3.6059   -0.3069    1.5723 C   0  0  0  0  0  0  0  0  0  0  0  0
    4.1801   -0.5849    0.3042 C   0  0  0  0  0  0  0  0  0  0  0  0
    5.5281   -0.6774    0.5237 N   0  0  0  0  0  0  0  0  0  0  0  0
    5.8593   -0.4908    1.8317 N   0  0  0  0  0  0  0  0  0  0  0  0
    4.7218   -0.2598    2.4688 C   0  0  0  0  0  0  0  0  0  0  0  0
    3.4096   -0.7403   -0.8710 C   0  0  0  0  0  0  0  0  0  0  0  0
    2.0336   -0.6224   -0.7091 C   0  0  0  0  0  0  0  0  0  0  0  0
    4.0299   -1.0242   -2.1853 C   0  0  0  0  0  0  0  0  0  0  0  0
    3.5030   -2.0184   -3.0267 C   0  0  0  0  0  0  0  0  0  0  0  0
    4.0839   -2.2808   -4.2692 C   0  0  0  0  0  0  0  0  0  0  0  0
    5.2036   -1.5557   -4.6910 C   0  0  0  0  0  0  0  0  0  0  0  0
    5.7349   -0.5619   -3.8623 C   0  0  0  0  0  0  0  0  0  0  0  0
    5.1539   -0.2986   -2.6196 C   0  0  0  0  0  0  0  0  0  0  0  0
   -3.2696    3.2846   -1.2145 H   0  0  0  0  0  0  0  0  0  0  0  0
   -4.0922    1.2861    0.0864 H   0  0  0  0  0  0  0  0  0  0  0  0
    1.7409    0.0610    2.6454 H   0  0  0  0  0  0  0  0  0  0  0  0
    6.2500   -0.9275   -0.1382 H   0  0  0  0  0  0  0  0  0  0  0  0
    4.7291   -0.0737    3.5355 H   0  0  0  0  0  0  0  0  0  0  0  0
    1.3824   -0.7132   -1.5728 H   0  0  0  0  0  0  0  0  0  0  0  0
    2.6482   -2.6013   -2.6940 H   0  0  0  0  0  0  0  0  0  0  0  0
    3.6675   -3.0576   -4.9050 H   0  0  0  0  0  0  0  0  0  0  0  0
    5.6561   -1.7614   -5.6573 H   0  0  0  0  0  0  0  0  0  0  0  0
    6.5944    0.0177   -4.1886 H   0  0  0  0  0  0  0  0  0  0  0  0
    5.5457    0.5068   -2.0033 H   0  0  0  0  0  0  0  0  0  0  0  0
  1  2  1  0
  2  3  1  0
  2  4  1  0
  2  5  1  0
  5  6  2  0
  5 17  1  0
  6  7  1  0
  7  8  2  0
  7 12  1  0
  8  9  1  0
  8 17  1  0
  9 10  2  0
 10 11  1  0
 10 13  1  0
 11 12  2  0
 11 33  1  0
 12 34  1  0
 13 14  1  0
 13 15  1  0
 13 16  1  0
 17 18  1  0
 18 19  2  0
 18 26  1  0
 19 20  1  0
 19 35  1  0
 20 21  2  0
 20 24  1  0
 21 22  1  0
 21 25  1  0
 22 23  1  0
 22 36  1  0
 23 24  2  0
 24 37  1  0
 25 26  2  0
 25 27  1  0
 26 38  1  0
 27 28  2  0
 27 32  1  0
 28 29  1  0
 28 39  1  0
 29 30  2  0
 29 40  1  0
 30 31  1  0
 30 41  1  0
 31 32  2  0
 31 42  1  0
 32 43  1  0
M  END
>  <group_name>  (1) 
JNS

>  <molecule_index>  (1) 
01448

>  <conformer_index>  (1) 
04

>  <method>  (1) 
b3lyp-d3bj

>  <basis>  (1) 
dzvp

>  <program>  (1) 
psi4

>  <initial_energy>  (1) 
-1054181.0819149683 kilocalorie / mole

>  <final_energy>  (1) 
-1054230.701794284 kilocalorie / mole

$$$$
