JNS-01554-09
     RDKit          3D

 35 38  0  0  0  0  0  0  0  0999 V2000
   -0.7355    0.1784    0.7256 F   0  0  0  0  0  0  0  0  0  0  0  0
   -0.0017   -0.6353   -0.0957 C   0  0  0  0  0  0  0  0  0  0  0  0
   -0.5245   -0.5265   -1.3435 F   0  0  0  0  0  0  0  0  0  0  0  0
    1.3877   -0.2624   -0.0890 N   0  0  0  0  0  0  0  0  0  0  0  0
    2.1928   -1.1354    0.5974 N   0  0  0  0  0  0  0  0  0  0  0  0
    3.4234   -0.6382    0.4167 C   0  0  0  0  0  0  0  0  0  0  0  0
    4.6732   -1.1152    0.8926 C   0  0  0  0  0  0  0  0  0  0  0  0
    5.7844   -0.3909    0.5298 C   0  0  0  0  0  0  0  0  0  0  0  0
    5.6419    0.7797   -0.2855 C   0  0  0  0  0  0  0  0  0  0  0  0
    4.5030    1.2543   -0.7390 N   0  0  0  0  0  0  0  0  0  0  0  0
    3.4008    0.5447   -0.3928 C   0  0  0  0  0  0  0  0  0  0  0  0
    2.0440    0.7775   -0.7071 C   0  0  0  0  0  0  0  0  0  0  0  0
    1.4654    1.8622   -1.4994 C   0  0  0  0  0  0  0  0  0  0  0  0
    2.2321    2.3675   -2.5680 C   0  0  0  0  0  0  0  0  0  0  0  0
    1.7552    3.4176   -3.3505 C   0  0  0  0  0  0  0  0  0  0  0  0
    2.6992    4.0440   -4.6884 Cl  0  0  0  0  0  0  0  0  0  0  0  0
    0.5125    3.9727   -3.0614 C   0  0  0  0  0  0  0  0  0  0  0  0
   -0.1595    5.0163   -3.6905 N   0  0  0  0  0  0  0  0  0  0  0  0
   -1.3860    5.2908   -3.0852 C   0  0  0  0  0  0  0  0  0  0  0  0
   -2.1676    6.1547   -3.4350 O   0  0  0  0  0  0  0  0  0  0  0  0
   -1.5255    4.2972   -1.9201 C   0  0  0  0  0  0  0  0  0  0  0  0
   -0.2544    3.4860   -1.9856 C   0  0  0  0  0  0  0  0  0  0  0  0
    0.2105    2.4443   -1.2055 C   0  0  0  0  0  0  0  0  0  0  0  0
    6.8843    1.5867   -0.6258 C   0  0  0  0  0  0  0  0  0  0  0  0
    7.9652    0.7760   -0.7775 F   0  0  0  0  0  0  0  0  0  0  0  0
    6.7459    2.2989   -1.7541 F   0  0  0  0  0  0  0  0  0  0  0  0
    7.1868    2.4548    0.3756 F   0  0  0  0  0  0  0  0  0  0  0  0
   -0.0776   -1.6602    0.2633 H   0  0  0  0  0  0  0  0  0  0  0  0
    4.7411   -2.0078    1.5072 H   0  0  0  0  0  0  0  0  0  0  0  0
    6.7757   -0.6959    0.8472 H   0  0  0  0  0  0  0  0  0  0  0  0
    3.2054    1.9447   -2.7852 H   0  0  0  0  0  0  0  0  0  0  0  0
    0.1892    5.5366   -4.4871 H   0  0  0  0  0  0  0  0  0  0  0  0
   -1.6416    4.8529   -0.9845 H   0  0  0  0  0  0  0  0  0  0  0  0
   -2.4315    3.6998   -2.0609 H   0  0  0  0  0  0  0  0  0  0  0  0
   -0.3761    2.0980   -0.3635 H   0  0  0  0  0  0  0  0  0  0  0  0
  1  2  1  0
  2  3  1  0
  2  4  1  0
  2 28  1  0
  4  5  1  0
  4 12  1  0
  5  6  2  0
  6  7  1  0
  6 11  1  0
  7  8  2  0
  7 29  1  0
  8  9  1  0
  8 30  1  0
  9 10  2  0
  9 24  1  0
 10 11  1  0
 11 12  2  0
 12 13  1  0
 13 14  2  0
 13 23  1  0
 14 15  1  0
 14 31  1  0
 15 16  1  0
 15 17  2  0
 17 18  1  0
 17 22  1  0
 18 19  1  0
 18 32  1  0
 19 20  2  0
 19 21  1  0
 21 22  1  0
 21 33  1  0
 21 34  1  0
 22 23  2  0
 23 35  1  0
 24 25  1  0
 24 26  1  0
 24 27  1  0
M  END
>  <group_name>  (1) 
JNS

>  <molecule_index>  (1) 
01554

>  <conformer_index>  (1) 
09

>  <method>  (1) 
b3lyp-d3bj

>  <basis>  (1) 
dzvp

>  <program>  (1) 
psi4

>  <initial_energy>  (1) 
-1172404.9313195765 kilocalorie / mole

>  <final_energy>  (1) 
-1172456.7475162644 kilocalorie / mole

$$$$
