JNS-01754-03
     RDKit          3D

 31 33  0  0  0  0  0  0  0  0999 V2000
   -4.3419   -0.9843   -2.7484 F   0  0  0  0  0  0  0  0  0  0  0  0
   -3.4631   -1.7124   -2.0100 C   0  0  0  0  0  0  0  0  0  0  0  0
   -2.7087   -2.4262   -2.8756 F   0  0  0  0  0  0  0  0  0  0  0  0
   -4.1857   -2.5954   -1.2847 F   0  0  0  0  0  0  0  0  0  0  0  0
   -2.6154   -0.8193   -1.1284 C   0  0  0  0  0  0  0  0  0  0  0  0
   -2.7679    0.5693   -1.1300 C   0  0  0  0  0  0  0  0  0  0  0  0
   -1.9519    1.3205   -0.2928 C   0  0  0  0  0  0  0  0  0  0  0  0
   -1.0053    0.6716    0.5193 C   0  0  0  0  0  0  0  0  0  0  0  0
   -0.1903    1.4490    1.3371 N   0  0  0  0  0  0  0  0  0  0  0  0
    0.6318    1.1218    2.3972 C   0  0  0  0  0  0  0  0  0  0  0  0
    1.4068    2.0328    2.9233 N   0  0  0  0  0  0  0  0  0  0  0  0
    2.0880    1.5448    4.0278 C   0  0  0  0  0  0  0  0  0  0  0  0
    1.8235    0.2339    4.3313 C   0  0  0  0  0  0  0  0  0  0  0  0
    0.6659   -0.4351    3.2172 S   0  0  0  0  0  0  0  0  0  0  0  0
    3.0216    2.4341    4.7391 C   0  0  0  0  0  0  0  0  0  0  0  0
    3.4285    3.6504    4.1701 C   0  0  0  0  0  0  0  0  0  0  0  0
    4.3245    4.4577    4.8689 C   0  0  0  0  0  0  0  0  0  0  0  0
    4.7872    4.0267    6.1155 C   0  0  0  0  0  0  0  0  0  0  0  0
    4.4016    2.8739    6.6838 N   0  0  0  0  0  0  0  0  0  0  0  0
    3.5391    2.1107    6.0066 C   0  0  0  0  0  0  0  0  0  0  0  0
   -0.9301   -0.7355    0.4271 C   0  0  0  0  0  0  0  0  0  0  0  0
   -1.7175   -1.4532   -0.3718 N   0  0  0  0  0  0  0  0  0  0  0  0
   -3.5058    1.0481   -1.7637 H   0  0  0  0  0  0  0  0  0  0  0  0
   -2.0472    2.4035   -0.2613 H   0  0  0  0  0  0  0  0  0  0  0  0
   -0.1903    2.4482    1.1630 H   0  0  0  0  0  0  0  0  0  0  0  0
    2.2565   -0.3931    5.0982 H   0  0  0  0  0  0  0  0  0  0  0  0
    3.0423    3.9408    3.1983 H   0  0  0  0  0  0  0  0  0  0  0  0
    4.6635    5.4045    4.4577 H   0  0  0  0  0  0  0  0  0  0  0  0
    5.4920    4.6305    6.6849 H   0  0  0  0  0  0  0  0  0  0  0  0
    3.2306    1.1938    6.5067 H   0  0  0  0  0  0  0  0  0  0  0  0
   -0.1971   -1.3002    0.9938 H   0  0  0  0  0  0  0  0  0  0  0  0
  1  2  1  0
  2  3  1  0
  2  4  1  0
  2  5  1  0
  5  6  2  0
  5 22  1  0
  6  7  1  0
  6 23  1  0
  7  8  2  0
  7 24  1  0
  8  9  1  0
  8 21  1  0
  9 10  1  0
  9 25  1  0
 10 11  2  0
 10 14  1  0
 11 12  1  0
 12 13  2  0
 12 15  1  0
 13 14  1  0
 13 26  1  0
 15 16  2  0
 15 20  1  0
 16 17  1  0
 16 27  1  0
 17 18  2  0
 17 28  1  0
 18 19  1  0
 18 29  1  0
 19 20  2  0
 20 30  1  0
 21 22  2  0
 21 31  1  0
M  END
>  <group_name>  (1) 
JNS

>  <molecule_index>  (1) 
01754

>  <conformer_index>  (1) 
03

>  <method>  (1) 
b3lyp-d3bj

>  <basis>  (1) 
dzvp

>  <program>  (1) 
psi4

>  <initial_energy>  (1) 
-913475.1314400245 kilocalorie / mole

>  <final_energy>  (1) 
-913535.7320412294 kilocalorie / mole

$$$$
