JNS-02392-09
     RDKit          3D

 48 51  0  0  0  0  0  0  0  0999 V2000
   -0.6124    0.1121   -3.6095 C   0  0  0  0  0  0  0  0  0  0  0  0
   -0.7149   -0.2574   -2.1535 C   0  0  0  0  0  0  0  0  0  0  0  0
   -1.9364   -0.2585   -1.4663 C   0  0  0  0  0  0  0  0  0  0  0  0
   -1.9244   -0.6224   -0.1139 C   0  0  0  0  0  0  0  0  0  0  0  0
   -3.1812   -0.6598    0.7146 C   0  0  0  0  0  0  0  0  0  0  0  0
   -0.7865   -0.9617    0.5104 N   0  0  0  0  0  0  0  0  0  0  0  0
    0.3323   -0.9214   -0.2365 C   0  0  0  0  0  0  0  0  0  0  0  0
    0.4288   -0.5863   -1.5393 N   0  0  0  0  0  0  0  0  0  0  0  0
    1.5089   -1.2410    0.3818 N   0  0  0  0  0  0  0  0  0  0  0  0
    1.6934   -2.0763    1.5807 C   0  0  0  0  0  0  0  0  0  0  0  0
    3.0902   -2.4823    1.0270 C   0  0  2  0  0  0  0  0  0  0  0  0
    4.3087   -1.8241    1.6689 C   0  0  0  0  0  0  0  0  0  0  0  0
    5.4834   -1.8006    0.6836 C   0  0  0  0  0  0  0  0  0  0  0  0
    5.0664   -1.2730   -0.6317 N   0  0  0  0  0  0  0  0  0  0  0  0
    3.7178   -0.7156   -0.7516 C   0  0  0  0  0  0  0  0  0  0  0  0
    2.6996   -1.7634   -0.2988 C   0  0  2  0  0  0  0  0  0  0  0  0
    5.9309   -1.4512   -1.6653 C   0  0  0  0  0  0  0  0  0  0  0  0
    7.0539   -1.9394   -1.5253 O   0  0  0  0  0  0  0  0  0  0  0  0
    5.5135   -0.9495   -3.0316 C   0  0  0  0  0  0  0  0  0  0  0  0
    5.9932    0.3070   -3.4296 C   0  0  0  0  0  0  0  0  0  0  0  0
    5.7056    0.7845   -4.7038 C   0  0  0  0  0  0  0  0  0  0  0  0
    4.9441   -0.0205   -5.5592 C   0  0  0  0  0  0  0  0  0  0  0  0
    4.4902   -1.2233   -5.2051 N   0  0  0  0  0  0  0  0  0  0  0  0
    4.7722   -1.6711   -3.9759 C   0  0  0  0  0  0  0  0  0  0  0  0
    4.1782   -3.0475   -3.7082 C   0  0  0  0  0  0  0  0  0  0  0  0
    2.8219   -2.9911   -3.6961 F   0  0  0  0  0  0  0  0  0  0  0  0
    4.5584   -3.5592   -2.5117 F   0  0  0  0  0  0  0  0  0  0  0  0
    4.5368   -3.9343   -4.6555 F   0  0  0  0  0  0  0  0  0  0  0  0
   -1.5946    0.2867   -4.0551 H   0  0  0  0  0  0  0  0  0  0  0  0
   -0.1031   -0.6840   -4.1609 H   0  0  0  0  0  0  0  0  0  0  0  0
   -0.0084    1.0188   -3.7216 H   0  0  0  0  0  0  0  0  0  0  0  0
   -2.8612    0.0084   -1.9669 H   0  0  0  0  0  0  0  0  0  0  0  0
   -4.0625   -0.3863    0.1295 H   0  0  0  0  0  0  0  0  0  0  0  0
   -3.3259   -1.6628    1.1284 H   0  0  0  0  0  0  0  0  0  0  0  0
   -3.0897    0.0276    1.5617 H   0  0  0  0  0  0  0  0  0  0  0  0
    1.6824   -1.5157    2.5211 H   0  0  0  0  0  0  0  0  0  0  0  0
    0.9690   -2.8958    1.6452 H   0  0  0  0  0  0  0  0  0  0  0  0
    3.2402   -3.5587    0.9176 H   0  0  0  0  0  0  0  0  0  0  0  0
    4.0564   -0.8047    1.9824 H   0  0  0  0  0  0  0  0  0  0  0  0
    4.6207   -2.3598    2.5714 H   0  0  0  0  0  0  0  0  0  0  0  0
    5.8760   -2.8102    0.5292 H   0  0  0  0  0  0  0  0  0  0  0  0
    6.3111   -1.1973    1.0727 H   0  0  0  0  0  0  0  0  0  0  0  0
    3.6249    0.1754   -0.1206 H   0  0  0  0  0  0  0  0  0  0  0  0
    3.5275   -0.4042   -1.7765 H   0  0  0  0  0  0  0  0  0  0  0  0
    2.4527   -2.4415   -1.1205 H   0  0  0  0  0  0  0  0  0  0  0  0
    6.5896    0.8931   -2.7358 H   0  0  0  0  0  0  0  0  0  0  0  0
    6.0631    1.7550   -5.0351 H   0  0  0  0  0  0  0  0  0  0  0  0
    4.6935    0.3125   -6.5646 H   0  0  0  0  0  0  0  0  0  0  0  0
  1  2  1  0
  1 29  1  0
  1 30  1  0
  1 31  1  0
  2  3  2  0
  2  8  1  0
  3  4  1  0
  3 32  1  0
  4  5  1  0
  4  6  2  0
  5 33  1  0
  5 34  1  0
  5 35  1  0
  6  7  1  0
  7  8  2  0
  7  9  1  0
  9 10  1  0
  9 16  1  0
 10 11  1  0
 10 36  1  0
 10 37  1  0
 11 12  1  0
 11 16  1  0
 11 38  1  6
 12 13  1  0
 12 39  1  0
 12 40  1  0
 13 14  1  0
 13 41  1  0
 13 42  1  0
 14 15  1  0
 14 17  1  0
 15 16  1  0
 15 43  1  0
 15 44  1  0
 16 45  1  6
 17 18  2  0
 17 19  1  0
 19 20  2  0
 19 24  1  0
 20 21  1  0
 20 46  1  0
 21 22  2  0
 21 47  1  0
 22 23  1  0
 22 48  1  0
 23 24  2  0
 24 25  1  0
 25 26  1  0
 25 27  1  0
 25 28  1  0
M  END
>  <group_name>  (1) 
JNS

>  <molecule_index>  (1) 
02392

>  <conformer_index>  (1) 
09

>  <method>  (1) 
b3lyp-d3bj

>  <basis>  (1) 
dzvp

>  <program>  (1) 
psi4

>  <initial_energy>  (1) 
-868962.0569742159 kilocalorie / mole

>  <final_energy>  (1) 
-869019.1167356607 kilocalorie / mole

$$$$
