JNS-01082-00
     RDKit          3D

 43 46  0  0  0  0  0  0  0  0999 V2000
    1.1117    4.7489    0.7374 C   0  0  0  0  0  0  0  0  0  0  0  0
    1.6739    3.9527   -0.4462 C   0  0  2  0  0  0  0  0  0  0  0  0
    0.9977    4.3213   -1.7869 C   0  0  0  0  0  0  0  0  0  0  0  0
   -0.3268    3.6331   -1.8424 C   0  0  0  0  0  0  0  0  0  0  0  0
   -0.6916    2.5802   -1.0410 C   0  0  0  0  0  0  0  0  0  0  0  0
    0.2043    1.9557   -0.0158 C   0  0  0  0  0  0  0  0  0  0  0  0
    1.5589    2.4984   -0.1979 N   0  0  0  0  0  0  0  0  0  0  0  0
    2.6843    1.7339   -0.2786 C   0  0  0  0  0  0  0  0  0  0  0  0
    3.7882    2.1653   -0.6175 O   0  0  0  0  0  0  0  0  0  0  0  0
    2.5747    0.2684    0.0760 C   0  0  0  0  0  0  0  0  0  0  0  0
    2.1523   -0.1882    1.3214 C   0  0  0  0  0  0  0  0  0  0  0  0
    1.7184    0.6946    2.2451 F   0  0  0  0  0  0  0  0  0  0  0  0
    2.1758   -1.5525    1.6245 C   0  0  0  0  0  0  0  0  0  0  0  0
    2.5941   -2.4656    0.7507 N   0  0  0  0  0  0  0  0  0  0  0  0
    3.0138   -2.0437   -0.4492 C   0  0  0  0  0  0  0  0  0  0  0  0
    3.0340   -0.6997   -0.8228 C   0  0  0  0  0  0  0  0  0  0  0  0
    1.7098   -2.0368    2.9909 C   0  0  0  0  0  0  0  0  0  0  0  0
    1.7928   -3.3674    3.1090 F   0  0  0  0  0  0  0  0  0  0  0  0
    2.4532   -1.4836    3.9817 F   0  0  0  0  0  0  0  0  0  0  0  0
    0.4189   -1.6792    3.2140 F   0  0  0  0  0  0  0  0  0  0  0  0
   -1.9802    2.2138   -1.3232 N   0  0  0  0  0  0  0  0  0  0  0  0
   -2.4473    2.9844   -2.2608 N   0  0  0  0  0  0  0  0  0  0  0  0
   -1.4478    3.8701   -2.5961 N   0  0  0  0  0  0  0  0  0  0  0  0
   -1.6401    4.8273   -3.6208 C   0  0  0  0  0  0  0  0  0  0  0  0
   -0.5259    5.3255   -4.1660 N   0  0  0  0  0  0  0  0  0  0  0  0
   -0.6894    6.2275   -5.1357 C   0  0  0  0  0  0  0  0  0  0  0  0
   -1.9620    6.6163   -5.5716 C   0  0  0  0  0  0  0  0  0  0  0  0
   -2.0615    7.5338   -6.5766 O   0  0  0  0  0  0  0  0  0  0  0  0
   -3.0513    6.0242   -4.9214 C   0  0  0  0  0  0  0  0  0  0  0  0
   -2.8948    5.1367   -3.9374 N   0  0  0  0  0  0  0  0  0  0  0  0
    1.3300    5.8125    0.6009 H   0  0  0  0  0  0  0  0  0  0  0  0
    1.5767    4.4219    1.6718 H   0  0  0  0  0  0  0  0  0  0  0  0
    0.0270    4.6409    0.8329 H   0  0  0  0  0  0  0  0  0  0  0  0
    2.7416    4.1485   -0.5335 H   0  0  0  0  0  0  0  0  0  0  0  0
    0.8910    5.4060   -1.8682 H   0  0  0  0  0  0  0  0  0  0  0  0
    1.6237    4.0053   -2.6272 H   0  0  0  0  0  0  0  0  0  0  0  0
    0.2189    0.8738   -0.1499 H   0  0  0  0  0  0  0  0  0  0  0  0
   -0.1573    2.1532    0.9998 H   0  0  0  0  0  0  0  0  0  0  0  0
    3.3532   -2.8151   -1.1363 H   0  0  0  0  0  0  0  0  0  0  0  0
    3.4090   -0.3952   -1.7949 H   0  0  0  0  0  0  0  0  0  0  0  0
    0.2033    6.6526   -5.5903 H   0  0  0  0  0  0  0  0  0  0  0  0
   -2.9964    7.6993   -6.7823 H   0  0  0  0  0  0  0  0  0  0  0  0
   -4.0776    6.2786   -5.1926 H   0  0  0  0  0  0  0  0  0  0  0  0
  1  2  1  0
  1 31  1  0
  1 32  1  0
  1 33  1  0
  2  3  1  0
  2  7  1  0
  2 34  1  6
  3  4  1  0
  3 35  1  0
  3 36  1  0
  4  5  2  0
  4 23  1  0
  5  6  1  0
  5 21  1  0
  6  7  1  0
  6 37  1  0
  6 38  1  0
  7  8  1  0
  8  9  2  0
  8 10  1  0
 10 11  2  0
 10 16  1  0
 11 12  1  0
 11 13  1  0
 13 14  2  0
 13 17  1  0
 14 15  1  0
 15 16  2  0
 15 39  1  0
 16 40  1  0
 17 18  1  0
 17 19  1  0
 17 20  1  0
 21 22  2  0
 22 23  1  0
 23 24  1  0
 24 25  2  0
 24 30  1  0
 25 26  1  0
 26 27  2  0
 26 41  1  0
 27 28  1  0
 27 29  1  0
 28 42  1  0
 29 30  2  0
 29 43  1  0
M  END
>  <group_name>  (1) 
JNS

>  <molecule_index>  (1) 
01082

>  <conformer_index>  (1) 
00

>  <method>  (1) 
b3lyp-d3bj

>  <basis>  (1) 
dzvp

>  <program>  (1) 
psi4

>  <initial_energy>  (1) 
-997052.5123887614 kilocalorie / mole

>  <final_energy>  (1) 
-997108.1930755178 kilocalorie / mole

$$$$
