JNS-01374-03
     RDKit          3D

 32 35  0  0  0  0  0  0  0  0999 V2000
   -0.6796    0.1470   -0.8833 F   0  0  0  0  0  0  0  0  0  0  0  0
   -0.0503    0.1483    0.3217 C   0  0  0  0  0  0  0  0  0  0  0  0
   -0.5158   -0.9205    1.0123 F   0  0  0  0  0  0  0  0  0  0  0  0
   -0.4054    1.2585    0.9730 F   0  0  0  0  0  0  0  0  0  0  0  0
    1.4475    0.0704    0.1484 C   0  0  0  0  0  0  0  0  0  0  0  0
    2.2666    1.0393    0.4805 N   0  0  0  0  0  0  0  0  0  0  0  0
    3.5253    0.5561    0.1604 C   0  0  0  0  0  0  0  0  0  0  0  0
    3.4233   -0.7512   -0.3818 C   0  0  0  0  0  0  0  0  0  0  0  0
    4.4165   -1.5234   -0.7949 N   0  0  0  0  0  0  0  0  0  0  0  0
    5.6258   -0.9646   -0.6673 C   0  0  0  0  0  0  0  0  0  0  0  0
    5.8699    0.3216   -0.1488 C   0  0  0  0  0  0  0  0  0  0  0  0
    4.8009    1.1122    0.2795 C   0  0  0  0  0  0  0  0  0  0  0  0
    6.7706   -1.8430   -1.1409 C   0  0  0  0  0  0  0  0  0  0  0  0
    7.9701   -1.2319   -0.9749 F   0  0  0  0  0  0  0  0  0  0  0  0
    6.8153   -3.0092   -0.4598 F   0  0  0  0  0  0  0  0  0  0  0  0
    6.6520   -2.1452   -2.4531 F   0  0  0  0  0  0  0  0  0  0  0  0
    2.0649   -1.0502   -0.3868 N   0  0  0  0  0  0  0  0  0  0  0  0
    1.4834   -2.2782   -0.8373 C   0  0  0  0  0  0  0  0  0  0  0  0
    0.8249   -2.3423   -2.0578 C   0  0  0  0  0  0  0  0  0  0  0  0
    0.2983   -3.5908   -2.4156 C   0  0  0  0  0  0  0  0  0  0  0  0
    0.5001   -4.6686   -1.5085 C   0  0  0  0  0  0  0  0  0  0  0  0
   -0.0925   -5.7546   -2.0829 N   0  0  0  0  0  0  0  0  0  0  0  0
   -0.6564   -5.4588   -3.2875 N   0  0  0  0  0  0  0  0  0  0  0  0
   -0.4323   -4.1705   -3.5010 C   0  0  0  0  0  0  0  0  0  0  0  0
    1.1422   -4.6241   -0.3334 N   0  0  0  0  0  0  0  0  0  0  0  0
    1.6227   -3.4260   -0.0181 C   0  0  0  0  0  0  0  0  0  0  0  0
    6.8877    0.6874   -0.0856 H   0  0  0  0  0  0  0  0  0  0  0  0
    4.9513    2.1081    0.6852 H   0  0  0  0  0  0  0  0  0  0  0  0
    0.7294   -1.4633   -2.6882 H   0  0  0  0  0  0  0  0  0  0  0  0
   -0.1412   -6.6976   -1.7194 H   0  0  0  0  0  0  0  0  0  0  0  0
   -0.7941   -3.7050   -4.4093 H   0  0  0  0  0  0  0  0  0  0  0  0
    2.1532   -3.3384    0.9279 H   0  0  0  0  0  0  0  0  0  0  0  0
  1  2  1  0
  2  3  1  0
  2  4  1  0
  2  5  1  0
  5  6  2  0
  5 17  1  0
  6  7  1  0
  7  8  2  0
  7 12  1  0
  8  9  1  0
  8 17  1  0
  9 10  2  0
 10 11  1  0
 10 13  1  0
 11 12  2  0
 11 27  1  0
 12 28  1  0
 13 14  1  0
 13 15  1  0
 13 16  1  0
 17 18  1  0
 18 19  2  0
 18 26  1  0
 19 20  1  0
 19 29  1  0
 20 21  2  0
 20 24  1  0
 21 22  1  0
 21 25  1  0
 22 23  1  0
 22 30  1  0
 23 24  2  0
 24 31  1  0
 25 26  2  0
 26 32  1  0
M  END
>  <group_name>  (1) 
JNS

>  <molecule_index>  (1) 
01374

>  <conformer_index>  (1) 
03

>  <method>  (1) 
b3lyp-d3bj

>  <basis>  (1) 
dzvp

>  <program>  (1) 
psi4

>  <initial_energy>  (1) 
-919234.0690539699 kilocalorie / mole

>  <final_energy>  (1) 
-919279.9089831955 kilocalorie / mole

$$$$
