JNS-02392-06
     RDKit          3D

 48 51  0  0  0  0  0  0  0  0999 V2000
   -1.9115    1.6205   -2.2264 C   0  0  0  0  0  0  0  0  0  0  0  0
   -1.5413    0.7300   -1.0702 C   0  0  0  0  0  0  0  0  0  0  0  0
   -2.0451    0.9375    0.2212 C   0  0  0  0  0  0  0  0  0  0  0  0
   -1.6261    0.0647    1.2328 C   0  0  0  0  0  0  0  0  0  0  0  0
   -2.0940    0.2090    2.6568 C   0  0  0  0  0  0  0  0  0  0  0  0
   -0.7798   -0.9446    0.9805 N   0  0  0  0  0  0  0  0  0  0  0  0
   -0.3698   -1.0697   -0.2965 C   0  0  0  0  0  0  0  0  0  0  0  0
   -0.6980   -0.2759   -1.3360 N   0  0  0  0  0  0  0  0  0  0  0  0
    0.4541   -2.1238   -0.5750 N   0  0  0  0  0  0  0  0  0  0  0  0
    1.2986   -2.8633    0.3713 C   0  0  0  0  0  0  0  0  0  0  0  0
    2.1242   -3.3548   -0.8515 C   0  0  2  0  0  0  0  0  0  0  0  0
    3.6494   -3.3874   -0.8013 C   0  0  0  0  0  0  0  0  0  0  0  0
    4.2807   -1.9954   -0.9273 C   0  0  0  0  0  0  0  0  0  0  0  0
    3.6880   -1.2837   -2.0590 N   0  0  0  0  0  0  0  0  0  0  0  0
    2.2775   -0.9510   -1.8707 C   0  0  0  0  0  0  0  0  0  0  0  0
    1.4238   -2.2251   -1.6791 C   0  0  2  0  0  0  0  0  0  0  0  0
    4.2532   -1.1594   -3.2932 C   0  0  0  0  0  0  0  0  0  0  0  0
    3.6439   -0.7896   -4.2971 O   0  0  0  0  0  0  0  0  0  0  0  0
    5.7145   -1.5311   -3.4222 C   0  0  0  0  0  0  0  0  0  0  0  0
    6.0241   -2.7057   -4.1193 C   0  0  0  0  0  0  0  0  0  0  0  0
    7.3560   -3.0628   -4.3099 C   0  0  0  0  0  0  0  0  0  0  0  0
    8.3490   -2.2191   -3.8019 C   0  0  0  0  0  0  0  0  0  0  0  0
    8.0748   -1.0821   -3.1568 N   0  0  0  0  0  0  0  0  0  0  0  0
    6.7930   -0.7497   -2.9795 C   0  0  0  0  0  0  0  0  0  0  0  0
    6.5854    0.5517   -2.2107 C   0  0  0  0  0  0  0  0  0  0  0  0
    5.4539    1.1903   -2.5862 F   0  0  0  0  0  0  0  0  0  0  0  0
    6.4726    0.3043   -0.8722 F   0  0  0  0  0  0  0  0  0  0  0  0
    7.6068    1.4046   -2.3725 F   0  0  0  0  0  0  0  0  0  0  0  0
   -2.5801    2.4283   -1.9194 H   0  0  0  0  0  0  0  0  0  0  0  0
   -1.0085    2.0534   -2.6683 H   0  0  0  0  0  0  0  0  0  0  0  0
   -2.4014    1.0317   -3.0084 H   0  0  0  0  0  0  0  0  0  0  0  0
   -2.7273    1.7543    0.4321 H   0  0  0  0  0  0  0  0  0  0  0  0
   -2.7573    1.0684    2.7815 H   0  0  0  0  0  0  0  0  0  0  0  0
   -2.6243   -0.6966    2.9685 H   0  0  0  0  0  0  0  0  0  0  0  0
   -1.2333    0.3238    3.3232 H   0  0  0  0  0  0  0  0  0  0  0  0
    0.7745   -3.6217    0.9583 H   0  0  0  0  0  0  0  0  0  0  0  0
    1.8478   -2.2022    1.0556 H   0  0  0  0  0  0  0  0  0  0  0  0
    1.7423   -4.3271   -1.1724 H   0  0  0  0  0  0  0  0  0  0  0  0
    4.0218   -4.0004   -1.6312 H   0  0  0  0  0  0  0  0  0  0  0  0
    3.9878   -3.8682    0.1247 H   0  0  0  0  0  0  0  0  0  0  0  0
    5.3589   -2.0782   -1.0519 H   0  0  0  0  0  0  0  0  0  0  0  0
    4.1081   -1.3968   -0.0256 H   0  0  0  0  0  0  0  0  0  0  0  0
    1.9333   -0.3756   -2.7262 H   0  0  0  0  0  0  0  0  0  0  0  0
    2.2020   -0.3180   -0.9794 H   0  0  0  0  0  0  0  0  0  0  0  0
    0.9863   -2.5343   -2.6313 H   0  0  0  0  0  0  0  0  0  0  0  0
    5.2179   -3.3200   -4.5108 H   0  0  0  0  0  0  0  0  0  0  0  0
    7.6249   -3.9695   -4.8438 H   0  0  0  0  0  0  0  0  0  0  0  0
    9.4033   -2.4605   -3.9227 H   0  0  0  0  0  0  0  0  0  0  0  0
  1  2  1  0
  1 29  1  0
  1 30  1  0
  1 31  1  0
  2  3  2  0
  2  8  1  0
  3  4  1  0
  3 32  1  0
  4  5  1  0
  4  6  2  0
  5 33  1  0
  5 34  1  0
  5 35  1  0
  6  7  1  0
  7  8  2  0
  7  9  1  0
  9 10  1  0
  9 16  1  0
 10 11  1  0
 10 36  1  0
 10 37  1  0
 11 12  1  0
 11 16  1  0
 11 38  1  6
 12 13  1  0
 12 39  1  0
 12 40  1  0
 13 14  1  0
 13 41  1  0
 13 42  1  0
 14 15  1  0
 14 17  1  0
 15 16  1  0
 15 43  1  0
 15 44  1  0
 16 45  1  6
 17 18  2  0
 17 19  1  0
 19 20  2  0
 19 24  1  0
 20 21  1  0
 20 46  1  0
 21 22  2  0
 21 47  1  0
 22 23  1  0
 22 48  1  0
 23 24  2  0
 24 25  1  0
 25 26  1  0
 25 27  1  0
 25 28  1  0
M  END
>  <group_name>  (1) 
JNS

>  <molecule_index>  (1) 
02392

>  <conformer_index>  (1) 
06

>  <method>  (1) 
b3lyp-d3bj

>  <basis>  (1) 
dzvp

>  <program>  (1) 
psi4

>  <initial_energy>  (1) 
-869005.7385923697 kilocalorie / mole

>  <final_energy>  (1) 
-869017.0200023047 kilocalorie / mole

$$$$
