JNS-01002-06
     RDKit          3D

 37 38  0  0  0  0  0  0  0  0999 V2000
   -2.3135   -2.3149   -0.8891 C   0  0  0  0  0  0  0  0  0  0  0  0
   -1.6073   -1.1105   -0.3182 C   0  0  0  0  0  0  0  0  0  0  0  0
   -2.2013    0.0762   -0.5299 N   0  0  0  0  0  0  0  0  0  0  0  0
   -1.5885    1.1535   -0.0264 C   0  0  0  0  0  0  0  0  0  0  0  0
   -0.4013    1.1414    0.6883 C   0  0  0  0  0  0  0  0  0  0  0  0
    0.2318   -0.1027    0.9118 C   0  0  0  0  0  0  0  0  0  0  0  0
    1.3933   -0.1628    1.6441 N   0  0  0  0  0  0  0  0  0  0  0  0
    2.3083   -1.2972    1.6201 C   0  0  0  0  0  0  0  0  0  0  0  0
    3.0028   -1.5539    0.2635 C   0  0  2  0  0  0  0  0  0  0  0  0
    4.1423   -2.5799    0.4249 C   0  0  0  0  0  0  0  0  0  0  0  0
    5.3562   -1.9852    1.1613 C   0  0  0  0  0  0  0  0  0  0  0  0
    5.7768   -0.6447    0.5500 C   0  0  0  0  0  0  0  0  0  0  0  0
    4.6264    0.2715    0.5087 N   0  0  0  0  0  0  0  0  0  0  0  0
    3.5647   -0.2657   -0.3510 C   0  0  0  0  0  0  0  0  0  0  0  0
   -0.4046   -1.2435    0.3831 C   0  0  0  0  0  0  0  0  0  0  0  0
   -2.3031    2.4645   -0.3033 C   0  0  0  0  0  0  0  0  0  0  0  0
   -2.4335    2.6919   -1.6305 F   0  0  0  0  0  0  0  0  0  0  0  0
   -1.6312    3.5277    0.2165 F   0  0  0  0  0  0  0  0  0  0  0  0
   -3.5447    2.4824    0.2321 F   0  0  0  0  0  0  0  0  0  0  0  0
   -2.4396   -2.1974   -1.9698 H   0  0  0  0  0  0  0  0  0  0  0  0
   -3.3149   -2.4007   -0.4556 H   0  0  0  0  0  0  0  0  0  0  0  0
   -1.7656   -3.2406   -0.6952 H   0  0  0  0  0  0  0  0  0  0  0  0
    0.0298    2.0623    1.0671 H   0  0  0  0  0  0  0  0  0  0  0  0
    1.8448    0.7284    1.8072 H   0  0  0  0  0  0  0  0  0  0  0  0
    3.0566   -1.0955    2.3868 H   0  0  0  0  0  0  0  0  0  0  0  0
    1.7729   -2.1999    1.9341 H   0  0  0  0  0  0  0  0  0  0  0  0
    2.2621   -1.9557   -0.4373 H   0  0  0  0  0  0  0  0  0  0  0  0
    3.7823   -3.4744    0.9483 H   0  0  0  0  0  0  0  0  0  0  0  0
    4.4567   -2.9098   -0.5735 H   0  0  0  0  0  0  0  0  0  0  0  0
    6.1974   -2.6862    1.1202 H   0  0  0  0  0  0  0  0  0  0  0  0
    5.1244   -1.8329    2.2210 H   0  0  0  0  0  0  0  0  0  0  0  0
    6.1895   -0.8248   -0.4609 H   0  0  0  0  0  0  0  0  0  0  0  0
    6.5691   -0.1872    1.1517 H   0  0  0  0  0  0  0  0  0  0  0  0
    4.9293    1.1733    0.1476 H   0  0  0  0  0  0  0  0  0  0  0  0
    3.9289   -0.4965   -1.3693 H   0  0  0  0  0  0  0  0  0  0  0  0
    2.7752    0.4845   -0.4567 H   0  0  0  0  0  0  0  0  0  0  0  0
    0.0237   -2.2301    0.5183 H   0  0  0  0  0  0  0  0  0  0  0  0
  1  2  1  0
  1 20  1  0
  1 21  1  0
  1 22  1  0
  2  3  2  0
  2 15  1  0
  3  4  1  0
  4  5  2  0
  4 16  1  0
  5  6  1  0
  5 23  1  0
  6  7  1  0
  6 15  2  0
  7  8  1  0
  7 24  1  0
  8  9  1  0
  8 25  1  0
  8 26  1  0
  9 10  1  0
  9 14  1  0
  9 27  1  6
 10 11  1  0
 10 28  1  0
 10 29  1  0
 11 12  1  0
 11 30  1  0
 11 31  1  0
 12 13  1  0
 12 32  1  0
 12 33  1  0
 13 14  1  0
 13 34  1  0
 14 35  1  0
 14 36  1  0
 15 37  1  0
 16 17  1  0
 16 18  1  0
 16 19  1  0
M  END
>  <group_name>  (1) 
JNS

>  <molecule_index>  (1) 
01002

>  <conformer_index>  (1) 
06

>  <method>  (1) 
b3lyp-d3bj

>  <basis>  (1) 
dzvp

>  <program>  (1) 
psi4

>  <initial_energy>  (1) 
-608781.1605437329 kilocalorie / mole

>  <final_energy>  (1) 
-608827.502258442 kilocalorie / mole

$$$$
