JNS-01581-07
     RDKit          3D

 40 44  0  0  0  0  0  0  0  0999 V2000
   -0.6817   -0.8792    0.2710 F   0  0  0  0  0  0  0  0  0  0  0  0
    0.1840   -1.1654   -0.7289 C   0  0  0  0  0  0  0  0  0  0  0  0
    0.2319   -2.5144   -0.8397 F   0  0  0  0  0  0  0  0  0  0  0  0
   -0.3604   -0.6899   -1.8781 F   0  0  0  0  0  0  0  0  0  0  0  0
    1.5561   -0.5765   -0.4724 C   0  0  0  0  0  0  0  0  0  0  0  0
    2.1426   -1.0168    0.6520 N   0  0  0  0  0  0  0  0  0  0  0  0
    3.3436   -0.5070    0.8675 C   0  0  0  0  0  0  0  0  0  0  0  0
    4.0423    0.4193    0.0470 C   0  0  0  0  0  0  0  0  0  0  0  0
    3.4033    0.8615   -1.1103 C   0  0  0  0  0  0  0  0  0  0  0  0
    2.1274    0.3432   -1.3663 C   0  0  0  0  0  0  0  0  0  0  0  0
    5.2856    0.6974    0.5937 N   0  0  0  0  0  0  0  0  0  0  0  0
    5.3522   -0.0140    1.7026 C   0  0  0  0  0  0  0  0  0  0  0  0
    6.5362   -0.1038    2.6001 C   0  0  0  0  0  0  0  0  0  0  0  0
    7.8751    0.4975    2.0984 C   0  0  0  0  0  0  0  0  0  0  0  0
    8.6086   -0.7431    2.6820 C   0  0  0  0  0  0  0  0  0  0  0  0
    7.2474   -1.4913    2.7347 C   0  0  0  0  0  0  0  0  0  0  0  0
    4.1966   -0.7638    1.9349 N   0  0  0  0  0  0  0  0  0  0  0  0
    3.9528   -1.6711    3.0077 C   0  0  0  0  0  0  0  0  0  0  0  0
    3.9185   -1.2081    4.3139 C   0  0  0  0  0  0  0  0  0  0  0  0
    3.7212   -2.1476    5.3429 C   0  0  0  0  0  0  0  0  0  0  0  0
    3.5375   -3.5183    5.0241 C   0  0  0  0  0  0  0  0  0  0  0  0
    3.3627   -4.1661    6.2128 N   0  0  0  0  0  0  0  0  0  0  0  0
    3.4167   -3.3166    7.2756 N   0  0  0  0  0  0  0  0  0  0  0  0
    3.6299   -2.1099    6.7729 C   0  0  0  0  0  0  0  0  0  0  0  0
    3.5511   -3.9648    3.6934 C   0  0  0  0  0  0  0  0  0  0  0  0
    3.3081   -5.6626    3.3457 Cl  0  0  0  0  0  0  0  0  0  0  0  0
    3.7636   -3.0398    2.6890 C   0  0  0  0  0  0  0  0  0  0  0  0
    3.8749    1.5716   -1.7831 H   0  0  0  0  0  0  0  0  0  0  0  0
    1.5773    0.6429   -2.2504 H   0  0  0  0  0  0  0  0  0  0  0  0
    6.2876    0.2780    3.5954 H   0  0  0  0  0  0  0  0  0  0  0  0
    7.9028    0.5263    1.0074 H   0  0  0  0  0  0  0  0  0  0  0  0
    8.1472    1.4824    2.4850 H   0  0  0  0  0  0  0  0  0  0  0  0
    9.3970   -1.1902    2.0713 H   0  0  0  0  0  0  0  0  0  0  0  0
    9.0057   -0.5533    3.6836 H   0  0  0  0  0  0  0  0  0  0  0  0
    7.0146   -2.0815    3.6242 H   0  0  0  0  0  0  0  0  0  0  0  0
    7.0832   -2.1085    1.8467 H   0  0  0  0  0  0  0  0  0  0  0  0
    4.0329   -0.1498    4.5257 H   0  0  0  0  0  0  0  0  0  0  0  0
    3.1926   -5.1507    6.3672 H   0  0  0  0  0  0  0  0  0  0  0  0
    3.7107   -1.2572    7.4354 H   0  0  0  0  0  0  0  0  0  0  0  0
    3.7799   -3.3530    1.6511 H   0  0  0  0  0  0  0  0  0  0  0  0
  1  2  1  0
  2  3  1  0
  2  4  1  0
  2  5  1  0
  5  6  2  0
  5 10  1  0
  6  7  1  0
  7  8  2  0
  7 17  1  0
  8  9  1  0
  8 11  1  0
  9 10  2  0
  9 28  1  0
 10 29  1  0
 11 12  2  0
 12 13  1  0
 12 17  1  0
 13 14  1  0
 13 16  1  0
 13 30  1  0
 14 15  1  0
 14 31  1  0
 14 32  1  0
 15 16  1  0
 15 33  1  0
 15 34  1  0
 16 35  1  0
 16 36  1  0
 17 18  1  0
 18 19  2  0
 18 27  1  0
 19 20  1  0
 19 37  1  0
 20 21  2  0
 20 24  1  0
 21 22  1  0
 21 25  1  0
 22 23  1  0
 22 38  1  0
 23 24  2  0
 24 39  1  0
 25 26  1  0
 25 27  2  0
 27 40  1  0
M  END
>  <group_name>  (1) 
JNS

>  <molecule_index>  (1) 
01581

>  <conformer_index>  (1) 
07

>  <method>  (1) 
b3lyp-d3bj

>  <basis>  (1) 
dzvp

>  <program>  (1) 
psi4

>  <initial_energy>  (1) 
-1083921.2809487428 kilocalorie / mole

>  <final_energy>  (1) 
-1083978.64890556 kilocalorie / mole

$$$$
