JNS-01589-08
     RDKit          3D

 43 47  0  0  0  0  0  0  0  0999 V2000
   -2.8749   -2.2305    1.0743 C   0  0  0  0  0  0  0  0  0  0  0  0
   -2.0830   -1.0535    0.5730 C   0  0  0  0  0  0  0  0  0  0  0  0
   -2.7428    0.1546    0.1978 C   0  0  0  0  0  0  0  0  0  0  0  0
   -4.0715    0.4014    0.2175 N   0  0  0  0  0  0  0  0  0  0  0  0
   -4.1569    1.6838   -0.1998 N   0  0  0  0  0  0  0  0  0  0  0  0
   -2.9724    2.2780   -0.4860 C   0  0  0  0  0  0  0  0  0  0  0  0
   -1.9963    1.3031   -0.2385 C   0  0  0  0  0  0  0  0  0  0  0  0
   -0.5847    1.2581   -0.3335 C   0  0  0  0  0  0  0  0  0  0  0  0
    0.0513    0.0748    0.0030 C   0  0  0  0  0  0  0  0  0  0  0  0
   -0.7097   -1.0562    0.4707 C   0  0  0  0  0  0  0  0  0  0  0  0
    1.5138    0.0191   -0.0517 C   0  0  0  0  0  0  0  0  0  0  0  0
    2.4596    0.9965    0.3389 C   0  0  0  0  0  0  0  0  0  0  0  0
    2.2773    2.2427    0.8274 N   0  0  0  0  0  0  0  0  0  0  0  0
    3.3847    2.9084    1.1002 C   0  0  0  0  0  0  0  0  0  0  0  0
    4.7094    2.4069    0.9260 C   0  0  0  0  0  0  0  0  0  0  0  0
    4.9022    1.1316    0.4327 C   0  0  0  0  0  0  0  0  0  0  0  0
    3.7403    0.3884    0.1210 C   0  0  0  0  0  0  0  0  0  0  0  0
    3.6127   -0.8552   -0.3784 N   0  0  0  0  0  0  0  0  0  0  0  0
    2.2682   -1.0362   -0.4777 N   0  0  0  0  0  0  0  0  0  0  0  0
    1.7925   -2.2866   -1.0566 C   0  0  0  0  0  0  0  0  0  0  0  0
    2.5995   -2.9022   -2.2266 C   0  0  0  0  0  0  0  0  0  0  0  0
    2.3423   -4.3019   -1.5974 C   0  0  0  0  0  0  0  0  0  0  0  0
    2.0072   -3.5958   -0.2531 C   0  0  0  0  0  0  0  0  0  0  0  0
    3.1637    4.3004    1.6633 C   0  0  0  0  0  0  0  0  0  0  0  0
    2.6326    4.2585    2.9099 F   0  0  0  0  0  0  0  0  0  0  0  0
    2.3218    5.0306    0.8974 F   0  0  0  0  0  0  0  0  0  0  0  0
    4.3277    4.9968    1.7538 F   0  0  0  0  0  0  0  0  0  0  0  0
   -3.4608   -1.9566    1.9582 H   0  0  0  0  0  0  0  0  0  0  0  0
   -3.5898   -2.5692    0.3165 H   0  0  0  0  0  0  0  0  0  0  0  0
   -2.2202   -3.0666    1.3347 H   0  0  0  0  0  0  0  0  0  0  0  0
   -5.0752    2.1053   -0.2658 H   0  0  0  0  0  0  0  0  0  0  0  0
   -2.9094    3.3032   -0.8236 H   0  0  0  0  0  0  0  0  0  0  0  0
   -0.0109    2.1219   -0.6514 H   0  0  0  0  0  0  0  0  0  0  0  0
   -0.1695   -1.9399    0.7980 H   0  0  0  0  0  0  0  0  0  0  0  0
    5.5538    3.0365    1.1817 H   0  0  0  0  0  0  0  0  0  0  0  0
    5.8960    0.7182    0.2861 H   0  0  0  0  0  0  0  0  0  0  0  0
    0.7471   -2.1432   -1.3266 H   0  0  0  0  0  0  0  0  0  0  0  0
    2.2235   -2.7079   -3.2344 H   0  0  0  0  0  0  0  0  0  0  0  0
    3.6490   -2.6140   -2.1604 H   0  0  0  0  0  0  0  0  0  0  0  0
    1.4678   -4.7958   -2.0303 H   0  0  0  0  0  0  0  0  0  0  0  0
    3.1789   -5.0039   -1.5928 H   0  0  0  0  0  0  0  0  0  0  0  0
    1.1615   -3.9670    0.3330 H   0  0  0  0  0  0  0  0  0  0  0  0
    2.8876   -3.5065    0.3878 H   0  0  0  0  0  0  0  0  0  0  0  0
  1  2  1  0
  1 28  1  0
  1 29  1  0
  1 30  1  0
  2  3  1  0
  2 10  2  0
  3  4  2  0
  3  7  1  0
  4  5  1  0
  5  6  1  0
  5 31  1  0
  6  7  2  0
  6 32  1  0
  7  8  1  0
  8  9  2  0
  8 33  1  0
  9 10  1  0
  9 11  1  0
 10 34  1  0
 11 12  2  0
 11 19  1  0
 12 13  1  0
 12 17  1  0
 13 14  2  0
 14 15  1  0
 14 24  1  0
 15 16  2  0
 15 35  1  0
 16 17  1  0
 16 36  1  0
 17 18  2  0
 18 19  1  0
 19 20  1  0
 20 21  1  0
 20 23  1  0
 20 37  1  0
 21 22  1  0
 21 38  1  0
 21 39  1  0
 22 23  1  0
 22 40  1  0
 22 41  1  0
 23 42  1  0
 23 43  1  0
 24 25  1  0
 24 26  1  0
 24 27  1  0
M  END
>  <group_name>  (1) 
JNS

>  <molecule_index>  (1) 
01589

>  <conformer_index>  (1) 
08

>  <method>  (1) 
b3lyp-d3bj

>  <basis>  (1) 
dzvp

>  <program>  (1) 
psi4

>  <initial_energy>  (1) 
-820195.2049652371 kilocalorie / mole

>  <final_energy>  (1) 
-820252.800917901 kilocalorie / mole

$$$$
