JNS-01155-07
     RDKit          3D

 46 50  0  0  0  0  0  0  0  0999 V2000
   -0.1884    1.2594   -1.1108 F   0  0  0  0  0  0  0  0  0  0  0  0
    0.1285    0.0784   -0.5631 C   0  0  0  0  0  0  0  0  0  0  0  0
   -0.5787   -0.0595    0.5837 F   0  0  0  0  0  0  0  0  0  0  0  0
   -0.2987   -0.8958   -1.4114 F   0  0  0  0  0  0  0  0  0  0  0  0
    1.6108   -0.0185   -0.3097 C   0  0  0  0  0  0  0  0  0  0  0  0
    2.4752    0.8527   -0.7758 N   0  0  0  0  0  0  0  0  0  0  0  0
    3.7105    0.4190   -0.3197 C   0  0  0  0  0  0  0  0  0  0  0  0
    3.5473   -0.7545    0.4519 C   0  0  0  0  0  0  0  0  0  0  0  0
    4.4783   -1.4558    1.0918 N   0  0  0  0  0  0  0  0  0  0  0  0
    5.7004   -0.9364    0.9362 C   0  0  0  0  0  0  0  0  0  0  0  0
    6.0212    0.2116    0.2028 C   0  0  0  0  0  0  0  0  0  0  0  0
    5.0186    0.9620   -0.4610 C   0  0  0  0  0  0  0  0  0  0  0  0
    5.2872    2.1278   -1.1384 N   0  0  0  0  0  0  0  0  0  0  0  0
    4.5030    2.4853   -2.3355 C   0  0  0  0  0  0  0  0  0  0  0  0
    4.5900    3.9829   -2.5958 C   0  0  0  0  0  0  0  0  0  0  0  0
    5.9437    4.4181   -2.7123 O   0  0  0  0  0  0  0  0  0  0  0  0
    6.6501    4.1346   -1.5126 C   0  0  0  0  0  0  0  0  0  0  0  0
    6.6582    2.6418   -1.1827 C   0  0  0  0  0  0  0  0  0  0  0  0
    6.7957   -1.7140    1.6460 C   0  0  0  0  0  0  0  0  0  0  0  0
    8.0245   -1.1778    1.4258 F   0  0  0  0  0  0  0  0  0  0  0  0
    6.6038   -1.7253    2.9862 F   0  0  0  0  0  0  0  0  0  0  0  0
    6.8434   -2.9999    1.2354 F   0  0  0  0  0  0  0  0  0  0  0  0
    2.1829   -1.0283    0.4406 N   0  0  0  0  0  0  0  0  0  0  0  0
    1.5597   -2.1362    1.1055 C   0  0  0  0  0  0  0  0  0  0  0  0
    0.9629   -3.1404    0.3609 C   0  0  0  0  0  0  0  0  0  0  0  0
    0.3663   -4.2060    1.0589 C   0  0  0  0  0  0  0  0  0  0  0  0
    0.4115   -4.2317    2.4785 C   0  0  0  0  0  0  0  0  0  0  0  0
   -0.2354   -5.3805    2.8459 N   0  0  0  0  0  0  0  0  0  0  0  0
   -0.6883   -6.0918    1.7749 N   0  0  0  0  0  0  0  0  0  0  0  0
   -0.3360   -5.4016    0.7013 C   0  0  0  0  0  0  0  0  0  0  0  0
    1.0348   -3.2173    3.2267 C   0  0  0  0  0  0  0  0  0  0  0  0
    1.6042   -2.1707    2.5210 C   0  0  0  0  0  0  0  0  0  0  0  0
    7.0600    0.4996    0.1392 H   0  0  0  0  0  0  0  0  0  0  0  0
    3.4640    2.1976   -2.1909 H   0  0  0  0  0  0  0  0  0  0  0  0
    4.9046    1.9402   -3.2036 H   0  0  0  0  0  0  0  0  0  0  0  0
    4.0888    4.5325   -1.7847 H   0  0  0  0  0  0  0  0  0  0  0  0
    4.1009    4.2260   -3.5419 H   0  0  0  0  0  0  0  0  0  0  0  0
    6.2014    4.6889   -0.6736 H   0  0  0  0  0  0  0  0  0  0  0  0
    7.6747    4.4861   -1.6577 H   0  0  0  0  0  0  0  0  0  0  0  0
    7.2564    2.0935   -1.9271 H   0  0  0  0  0  0  0  0  0  0  0  0
    7.1284    2.5201   -0.2045 H   0  0  0  0  0  0  0  0  0  0  0  0
    0.9611   -3.0992   -0.7234 H   0  0  0  0  0  0  0  0  0  0  0  0
   -0.3979   -5.7423    3.7753 H   0  0  0  0  0  0  0  0  0  0  0  0
   -0.5905   -5.7719   -0.2839 H   0  0  0  0  0  0  0  0  0  0  0  0
    1.0741   -3.2451    4.3116 H   0  0  0  0  0  0  0  0  0  0  0  0
    2.1027   -1.3634    3.0473 H   0  0  0  0  0  0  0  0  0  0  0  0
  1  2  1  0
  2  3  1  0
  2  4  1  0
  2  5  1  0
  5  6  2  0
  5 23  1  0
  6  7  1  0
  7  8  2  0
  7 12  1  0
  8  9  1  0
  8 23  1  0
  9 10  2  0
 10 11  1  0
 10 19  1  0
 11 12  2  0
 11 33  1  0
 12 13  1  0
 13 14  1  0
 13 18  1  0
 14 15  1  0
 14 34  1  0
 14 35  1  0
 15 16  1  0
 15 36  1  0
 15 37  1  0
 16 17  1  0
 17 18  1  0
 17 38  1  0
 17 39  1  0
 18 40  1  0
 18 41  1  0
 19 20  1  0
 19 21  1  0
 19 22  1  0
 23 24  1  0
 24 25  2  0
 24 32  1  0
 25 26  1  0
 25 42  1  0
 26 27  2  0
 26 30  1  0
 27 28  1  0
 27 31  1  0
 28 29  1  0
 28 43  1  0
 29 30  2  0
 30 44  1  0
 31 32  2  0
 31 45  1  0
 32 46  1  0
M  END
>  <group_name>  (1) 
JNS

>  <molecule_index>  (1) 
01155

>  <conformer_index>  (1) 
07

>  <method>  (1) 
b3lyp-d3bj

>  <basis>  (1) 
dzvp

>  <program>  (1) 
psi4

>  <initial_energy>  (1) 
-1089093.996129513 kilocalorie / mole

>  <final_energy>  (1) 
-1089102.588280728 kilocalorie / mole

$$$$
