JNS-02240-07
     RDKit          3D

 51 55  0  0  0  0  0  0  0  0999 V2000
    1.2220    5.8705    3.7163 C   0  0  0  0  0  0  0  0  0  0  0  0
    0.3106    4.8074    3.1669 C   0  0  0  0  0  0  0  0  0  0  0  0
   -0.7882    4.4997    3.8634 N   0  0  0  0  0  0  0  0  0  0  0  0
   -1.5965    3.5359    3.3816 C   0  0  0  0  0  0  0  0  0  0  0  0
   -2.7853    3.2518    4.2320 C   0  0  0  0  0  0  0  0  0  0  0  0
   -3.3551    2.0374    4.1722 N   0  0  0  0  0  0  0  0  0  0  0  0
   -4.3996    1.8202    4.9774 C   0  0  0  0  0  0  0  0  0  0  0  0
   -4.8903    2.8085    5.8352 C   0  0  0  0  0  0  0  0  0  0  0  0
   -4.3366    4.0278    5.8962 N   0  0  0  0  0  0  0  0  0  0  0  0
   -3.2847    4.2418    5.1018 C   0  0  0  0  0  0  0  0  0  0  0  0
   -1.3240    2.8704    2.1702 C   0  0  0  0  0  0  0  0  0  0  0  0
   -2.2234    1.8339    1.5263 C   0  0  0  0  0  0  0  0  0  0  0  0
   -1.8634    1.6439    0.0487 C   0  0  1  0  0  0  0  0  0  0  0  0
   -2.2270    2.8754   -0.8260 C   0  0  0  0  0  0  0  0  0  0  0  0
   -1.0779    3.2474   -1.7701 C   0  0  0  0  0  0  0  0  0  0  0  0
    0.1988    3.5793   -0.9777 C   0  0  0  0  0  0  0  0  0  0  0  0
    0.3489    2.6249    0.2439 C   0  0  2  0  0  0  0  0  0  0  0  0
   -0.4126    1.4075   -0.0086 N   0  0  0  0  0  0  0  0  0  0  0  0
    0.0795    0.1452   -0.0691 C   0  0  0  0  0  0  0  0  0  0  0  0
   -0.6112   -0.8607   -0.2355 O   0  0  0  0  0  0  0  0  0  0  0  0
    1.5801   -0.0095    0.0422 C   0  0  0  0  0  0  0  0  0  0  0  0
    2.3380   -0.2406   -1.1069 C   0  0  0  0  0  0  0  0  0  0  0  0
    3.7088   -0.4607   -0.9791 C   0  0  0  0  0  0  0  0  0  0  0  0
    4.3359   -0.4704    0.2017 N   0  0  0  0  0  0  0  0  0  0  0  0
    3.6208   -0.2624    1.3062 C   0  0  0  0  0  0  0  0  0  0  0  0
    2.2364   -0.0244    1.2784 C   0  0  0  0  0  0  0  0  0  0  0  0
    1.3123    0.2587    2.7332 Cl  0  0  0  0  0  0  0  0  0  0  0  0
    4.4061   -0.2936    2.6167 C   0  0  0  0  0  0  0  0  0  0  0  0
    3.9350   -1.2553    3.4481 F   0  0  0  0  0  0  0  0  0  0  0  0
    4.3086    0.8910    3.2720 F   0  0  0  0  0  0  0  0  0  0  0  0
    5.7072   -0.5363    2.4133 F   0  0  0  0  0  0  0  0  0  0  0  0
   -0.1279    3.2612    1.5412 C   0  0  0  0  0  0  0  0  0  0  0  0
    0.6761    4.2143    2.0204 N   0  0  0  0  0  0  0  0  0  0  0  0
    0.7142    6.4488    4.4894 H   0  0  0  0  0  0  0  0  0  0  0  0
    1.5647    6.5300    2.9149 H   0  0  0  0  0  0  0  0  0  0  0  0
    2.1107    5.4041    4.1562 H   0  0  0  0  0  0  0  0  0  0  0  0
   -4.8566    0.8331    4.9396 H   0  0  0  0  0  0  0  0  0  0  0  0
   -5.7433    2.6164    6.4830 H   0  0  0  0  0  0  0  0  0  0  0  0
   -2.8120    5.2179    5.1435 H   0  0  0  0  0  0  0  0  0  0  0  0
   -2.1276    0.8809    2.0532 H   0  0  0  0  0  0  0  0  0  0  0  0
   -3.2720    2.1291    1.6218 H   0  0  0  0  0  0  0  0  0  0  0  0
   -2.3429    0.7441   -0.3349 H   0  0  0  0  0  0  0  0  0  0  0  0
   -3.1367    2.6575   -1.3929 H   0  0  0  0  0  0  0  0  0  0  0  0
   -2.4569    3.7332   -0.1832 H   0  0  0  0  0  0  0  0  0  0  0  0
   -0.8847    2.4058   -2.4447 H   0  0  0  0  0  0  0  0  0  0  0  0
   -1.3603    4.0977   -2.3987 H   0  0  0  0  0  0  0  0  0  0  0  0
    0.1830    4.6111   -0.6164 H   0  0  0  0  0  0  0  0  0  0  0  0
    1.0773    3.4809   -1.6227 H   0  0  0  0  0  0  0  0  0  0  0  0
    1.4014    2.3860    0.3870 H   0  0  0  0  0  0  0  0  0  0  0  0
    1.8600   -0.2561   -2.0820 H   0  0  0  0  0  0  0  0  0  0  0  0
    4.3296   -0.6384   -1.8544 H   0  0  0  0  0  0  0  0  0  0  0  0
  1  2  1  0
  1 34  1  0
  1 35  1  0
  1 36  1  0
  2  3  2  0
  2 33  1  0
  3  4  1  0
  4  5  1  0
  4 11  2  0
  5  6  2  0
  5 10  1  0
  6  7  1  0
  7  8  2  0
  7 37  1  0
  8  9  1  0
  8 38  1  0
  9 10  2  0
 10 39  1  0
 11 12  1  0
 11 32  1  0
 12 13  1  0
 12 40  1  0
 12 41  1  0
 13 14  1  0
 13 18  1  0
 13 42  1  6
 14 15  1  0
 14 43  1  0
 14 44  1  0
 15 16  1  0
 15 45  1  0
 15 46  1  0
 16 17  1  0
 16 47  1  0
 16 48  1  0
 17 18  1  0
 17 32  1  0
 17 49  1  1
 18 19  1  0
 19 20  2  0
 19 21  1  0
 21 22  2  0
 21 26  1  0
 22 23  1  0
 22 50  1  0
 23 24  2  0
 23 51  1  0
 24 25  1  0
 25 26  2  0
 25 28  1  0
 26 27  1  0
 28 29  1  0
 28 30  1  0
 28 31  1  0
 32 33  2  0
M  END
>  <group_name>  (1) 
JNS

>  <molecule_index>  (1) 
02240

>  <conformer_index>  (1) 
07

>  <method>  (1) 
b3lyp-d3bj

>  <basis>  (1) 
dzvp

>  <program>  (1) 
psi4

>  <initial_energy>  (1) 
-1263078.7641977868 kilocalorie / mole

>  <final_energy>  (1) 
-1263140.3891274037 kilocalorie / mole

$$$$
