JNS-01948-06
     RDKit          3D

 33 34  0  0  0  0  0  0  0  0999 V2000
   -0.0125    0.0180    2.1372 C   0  0  0  0  0  0  0  0  0  0  0  0
    0.4866   -0.6861    0.9855 O   0  0  0  0  0  0  0  0  0  0  0  0
    1.6096   -0.1987    0.4130 C   0  0  0  0  0  0  0  0  0  0  0  0
    2.1911    0.8795    0.9199 N   0  0  0  0  0  0  0  0  0  0  0  0
    3.3034    1.3169    0.3053 C   0  0  0  0  0  0  0  0  0  0  0  0
    3.8714    0.7202   -0.8059 C   0  0  0  0  0  0  0  0  0  0  0  0
    3.2484   -0.4307   -1.3398 C   0  0  0  0  0  0  0  0  0  0  0  0
    3.8569   -1.1479   -2.5199 C   0  0  0  0  0  0  0  0  0  0  0  0
    5.1202   -1.9363   -2.1348 C   0  0  2  0  0  0  0  0  0  0  0  0
    5.7840   -2.6721   -3.3244 C   0  0  0  0  0  0  0  0  0  0  0  0
    6.2817   -4.0243   -2.7267 C   0  0  0  0  0  0  0  0  0  0  0  0
    6.0125   -4.0017   -1.2723 N   0  0  0  0  0  0  0  0  0  0  0  0
    4.8855   -3.0723   -1.1152 C   0  0  0  0  0  0  0  0  0  0  0  0
    2.0989   -0.8917   -0.7159 C   0  0  0  0  0  0  0  0  0  0  0  0
    3.9138    2.5550    0.9333 C   0  0  0  0  0  0  0  0  0  0  0  0
    5.0410    2.9441    0.2847 F   0  0  0  0  0  0  0  0  0  0  0  0
    3.0573    3.6022    0.9085 F   0  0  0  0  0  0  0  0  0  0  0  0
    4.2510    2.3434    2.2267 F   0  0  0  0  0  0  0  0  0  0  0  0
   -0.2621    1.0509    1.8813 H   0  0  0  0  0  0  0  0  0  0  0  0
   -0.9057   -0.5294    2.4392 H   0  0  0  0  0  0  0  0  0  0  0  0
    0.7282    0.0196    2.9410 H   0  0  0  0  0  0  0  0  0  0  0  0
    4.7689    1.1294   -1.2561 H   0  0  0  0  0  0  0  0  0  0  0  0
    3.1240   -1.8374   -2.9537 H   0  0  0  0  0  0  0  0  0  0  0  0
    4.1091   -0.4178   -3.2982 H   0  0  0  0  0  0  0  0  0  0  0  0
    5.8448   -1.2382   -1.6964 H   0  0  0  0  0  0  0  0  0  0  0  0
    6.5983   -2.0816   -3.7547 H   0  0  0  0  0  0  0  0  0  0  0  0
    5.0563   -2.8468   -4.1246 H   0  0  0  0  0  0  0  0  0  0  0  0
    5.7279   -4.8585   -3.1714 H   0  0  0  0  0  0  0  0  0  0  0  0
    7.3440   -4.2082   -2.9087 H   0  0  0  0  0  0  0  0  0  0  0  0
    6.8207   -3.6021   -0.7982 H   0  0  0  0  0  0  0  0  0  0  0  0
    4.8065   -2.7251   -0.0818 H   0  0  0  0  0  0  0  0  0  0  0  0
    3.9540   -3.6034   -1.3572 H   0  0  0  0  0  0  0  0  0  0  0  0
    1.5668   -1.7695   -1.0694 H   0  0  0  0  0  0  0  0  0  0  0  0
  1  2  1  0
  1 19  1  0
  1 20  1  0
  1 21  1  0
  2  3  1  0
  3  4  2  0
  3 14  1  0
  4  5  1  0
  5  6  2  0
  5 15  1  0
  6  7  1  0
  6 22  1  0
  7  8  1  0
  7 14  2  0
  8  9  1  0
  8 23  1  0
  8 24  1  0
  9 10  1  0
  9 13  1  0
  9 25  1  1
 10 11  1  0
 10 26  1  0
 10 27  1  0
 11 12  1  0
 11 28  1  0
 11 29  1  0
 12 13  1  0
 12 30  1  0
 13 31  1  0
 13 32  1  0
 14 33  1  0
 15 16  1  0
 15 17  1  0
 15 18  1  0
M  END
>  <group_name>  (1) 
JNS

>  <molecule_index>  (1) 
01948

>  <conformer_index>  (1) 
06

>  <method>  (1) 
b3lyp-d3bj

>  <basis>  (1) 
dzvp

>  <program>  (1) 
psi4

>  <initial_energy>  (1) 
-596345.3655776571 kilocalorie / mole

>  <final_energy>  (1) 
-596614.8216648418 kilocalorie / mole

$$$$
