JNS-02158-07
     RDKit          3D

 42 45  0  0  0  0  0  0  0  0999 V2000
   -1.4370    2.6665    1.5850 C   0  0  0  0  0  0  0  0  0  0  0  0
   -1.4803    2.1228    0.1501 C   0  0  2  0  0  0  0  0  0  0  0  0
   -0.1607    1.5978   -0.2748 N   0  0  0  0  0  0  0  0  0  0  0  0
    0.7921    2.5510   -0.8526 C   0  0  0  0  0  0  0  0  0  0  0  0
    0.2615    3.1788   -2.1550 C   0  0  0  0  0  0  0  0  0  0  0  0
   -1.1475    3.5984   -1.9020 C   0  0  0  0  0  0  0  0  0  0  0  0
   -1.9111    3.1451   -0.8575 C   0  0  0  0  0  0  0  0  0  0  0  0
   -3.1356    3.7640   -0.8895 N   0  0  0  0  0  0  0  0  0  0  0  0
   -3.1807    4.5800   -1.8970 N   0  0  0  0  0  0  0  0  0  0  0  0
   -1.9643    4.4991   -2.5426 N   0  0  0  0  0  0  0  0  0  0  0  0
   -1.7160    5.2453   -3.7144 C   0  0  0  0  0  0  0  0  0  0  0  0
   -2.5366    6.2658   -3.9692 N   0  0  0  0  0  0  0  0  0  0  0  0
   -2.2984    6.9474   -5.0910 C   0  0  0  0  0  0  0  0  0  0  0  0
   -1.2344    6.6066   -5.9235 C   0  0  0  0  0  0  0  0  0  0  0  0
   -0.9917    7.3023   -7.0519 F   0  0  0  0  0  0  0  0  0  0  0  0
   -0.4247    5.5366   -5.5618 C   0  0  0  0  0  0  0  0  0  0  0  0
   -0.6728    4.8407   -4.4467 N   0  0  0  0  0  0  0  0  0  0  0  0
    0.0924    0.2795   -0.0404 C   0  0  0  0  0  0  0  0  0  0  0  0
   -0.7385   -0.5049    0.4189 O   0  0  0  0  0  0  0  0  0  0  0  0
    1.4624   -0.2619   -0.3824 C   0  0  0  0  0  0  0  0  0  0  0  0
    1.5932   -1.2901   -1.3209 C   0  0  0  0  0  0  0  0  0  0  0  0
    2.8525   -1.8439   -1.5557 C   0  0  0  0  0  0  0  0  0  0  0  0
    3.9591   -1.4507   -0.9120 N   0  0  0  0  0  0  0  0  0  0  0  0
    3.8440   -0.4875    0.0001 C   0  0  0  0  0  0  0  0  0  0  0  0
    2.6193    0.1198    0.2898 C   0  0  0  0  0  0  0  0  0  0  0  0
    2.5552    1.0963    1.2195 F   0  0  0  0  0  0  0  0  0  0  0  0
    5.1058   -0.0411    0.7256 C   0  0  0  0  0  0  0  0  0  0  0  0
    4.9794   -0.1958    2.0656 F   0  0  0  0  0  0  0  0  0  0  0  0
    5.3463    1.2777    0.4971 F   0  0  0  0  0  0  0  0  0  0  0  0
    6.1843   -0.7275    0.3304 F   0  0  0  0  0  0  0  0  0  0  0  0
   -1.1712    1.8653    2.2791 H   0  0  0  0  0  0  0  0  0  0  0  0
   -0.7081    3.4776    1.6788 H   0  0  0  0  0  0  0  0  0  0  0  0
   -2.4207    3.0592    1.8562 H   0  0  0  0  0  0  0  0  0  0  0  0
   -2.1687    1.2761    0.1203 H   0  0  0  0  0  0  0  0  0  0  0  0
    0.9921    3.3403   -0.1197 H   0  0  0  0  0  0  0  0  0  0  0  0
    1.7349    2.0481   -1.0538 H   0  0  0  0  0  0  0  0  0  0  0  0
    0.3067    2.4605   -2.9805 H   0  0  0  0  0  0  0  0  0  0  0  0
    0.8924    4.0249   -2.4387 H   0  0  0  0  0  0  0  0  0  0  0  0
   -2.9548    7.7822   -5.3300 H   0  0  0  0  0  0  0  0  0  0  0  0
    0.4217    5.2356   -6.1759 H   0  0  0  0  0  0  0  0  0  0  0  0
    0.7168   -1.6543   -1.8482 H   0  0  0  0  0  0  0  0  0  0  0  0
    2.9806   -2.6380   -2.2873 H   0  0  0  0  0  0  0  0  0  0  0  0
  1  2  1  0
  1 31  1  0
  1 32  1  0
  1 33  1  0
  2  3  1  0
  2  7  1  0
  2 34  1  1
  3  4  1  0
  3 18  1  0
  4  5  1  0
  4 35  1  0
  4 36  1  0
  5  6  1  0
  5 37  1  0
  5 38  1  0
  6  7  2  0
  6 10  1  0
  7  8  1  0
  8  9  2  0
  9 10  1  0
 10 11  1  0
 11 12  2  0
 11 17  1  0
 12 13  1  0
 13 14  2  0
 13 39  1  0
 14 15  1  0
 14 16  1  0
 16 17  2  0
 16 40  1  0
 18 19  2  0
 18 20  1  0
 20 21  2  0
 20 25  1  0
 21 22  1  0
 21 41  1  0
 22 23  2  0
 22 42  1  0
 23 24  1  0
 24 25  2  0
 24 27  1  0
 25 26  1  0
 27 28  1  0
 27 29  1  0
 27 30  1  0
M  END
>  <group_name>  (1) 
JNS

>  <molecule_index>  (1) 
02158

>  <conformer_index>  (1) 
07

>  <method>  (1) 
b3lyp-d3bj

>  <basis>  (1) 
dzvp

>  <program>  (1) 
psi4

>  <initial_energy>  (1) 
-1012132.8338892588 kilocalorie / mole

>  <final_energy>  (1) 
-1012182.2385575254 kilocalorie / mole

$$$$
