JNS-01658-07
     RDKit          3D

 38 41  0  0  0  0  0  0  0  0999 V2000
   -0.2640   -2.3775    1.2311 C   0  0  0  0  0  0  0  0  0  0  0  0
   -0.8140   -1.0687    0.7714 C   0  0  0  0  0  0  0  0  0  0  0  0
   -2.0997   -0.7766    0.7136 N   0  0  0  0  0  0  0  0  0  0  0  0
   -2.1622    0.5137    0.2132 C   0  0  0  0  0  0  0  0  0  0  0  0
   -0.8526    1.0037   -0.0398 C   0  0  0  0  0  0  0  0  0  0  0  0
   -0.5263    2.1884   -0.5301 N   0  0  0  0  0  0  0  0  0  0  0  0
   -1.5774    2.9786   -0.7965 C   0  0  0  0  0  0  0  0  0  0  0  0
   -2.9205    2.6229   -0.5910 C   0  0  0  0  0  0  0  0  0  0  0  0
   -3.2329    1.3600   -0.0734 C   0  0  0  0  0  0  0  0  0  0  0  0
   -1.2067    4.3338   -1.3625 C   0  0  0  0  0  0  0  0  0  0  0  0
   -2.3041    5.0931   -1.6109 F   0  0  0  0  0  0  0  0  0  0  0  0
   -0.4190    5.0363   -0.5152 F   0  0  0  0  0  0  0  0  0  0  0  0
   -0.5291    4.2203   -2.5311 F   0  0  0  0  0  0  0  0  0  0  0  0
    0.0030   -0.0273    0.3339 N   0  0  0  0  0  0  0  0  0  0  0  0
    1.4281   -0.0023    0.2545 C   0  0  0  0  0  0  0  0  0  0  0  0
    2.1950   -0.1783    1.4160 C   0  0  0  0  0  0  0  0  0  0  0  0
    3.5767   -0.1460    1.3024 C   0  0  0  0  0  0  0  0  0  0  0  0
    4.1719    0.0829    0.0502 C   0  0  0  0  0  0  0  0  0  0  0  0
    5.5676    0.0852    0.1977 N   0  0  0  0  0  0  0  0  0  0  0  0
    5.9625   -0.1274    1.5137 C   0  0  0  0  0  0  0  0  0  0  0  0
    7.1133   -0.1686    1.9117 O   0  0  0  0  0  0  0  0  0  0  0  0
    4.6704   -0.2936    2.3307 C   0  0  0  0  0  0  0  0  0  0  0  0
    3.4305    0.2817   -1.1175 C   0  0  0  0  0  0  0  0  0  0  0  0
    4.1034    0.5456   -2.4411 C   0  0  0  0  0  0  0  0  0  0  0  0
    2.0365    0.2259   -0.9839 C   0  0  0  0  0  0  0  0  0  0  0  0
    0.1503   -2.3054    2.2421 H   0  0  0  0  0  0  0  0  0  0  0  0
    0.5366   -2.7240    0.5713 H   0  0  0  0  0  0  0  0  0  0  0  0
   -1.0737   -3.1080    1.2426 H   0  0  0  0  0  0  0  0  0  0  0  0
   -3.7053    3.3284   -0.8368 H   0  0  0  0  0  0  0  0  0  0  0  0
   -4.2605    1.0522    0.0959 H   0  0  0  0  0  0  0  0  0  0  0  0
    1.7095   -0.3184    2.3774 H   0  0  0  0  0  0  0  0  0  0  0  0
    6.2402    0.2399   -0.5427 H   0  0  0  0  0  0  0  0  0  0  0  0
    4.6401    0.4704    3.1140 H   0  0  0  0  0  0  0  0  0  0  0  0
    4.6804   -1.2694    2.8263 H   0  0  0  0  0  0  0  0  0  0  0  0
    4.7674   -0.2795   -2.7260 H   0  0  0  0  0  0  0  0  0  0  0  0
    3.3680    0.6709   -3.2389 H   0  0  0  0  0  0  0  0  0  0  0  0
    4.7085    1.4595   -2.4040 H   0  0  0  0  0  0  0  0  0  0  0  0
    1.4081    0.3782   -1.8560 H   0  0  0  0  0  0  0  0  0  0  0  0
  1  2  1  0
  1 26  1  0
  1 27  1  0
  1 28  1  0
  2  3  2  0
  2 14  1  0
  3  4  1  0
  4  5  2  0
  4  9  1  0
  5  6  1  0
  5 14  1  0
  6  7  2  0
  7  8  1  0
  7 10  1  0
  8  9  2  0
  8 29  1  0
  9 30  1  0
 10 11  1  0
 10 12  1  0
 10 13  1  0
 14 15  1  0
 15 16  2  0
 15 25  1  0
 16 17  1  0
 16 31  1  0
 17 18  2  0
 17 22  1  0
 18 19  1  0
 18 23  1  0
 19 20  1  0
 19 32  1  0
 20 21  2  0
 20 22  1  0
 22 33  1  0
 22 34  1  0
 23 24  1  0
 23 25  2  0
 24 35  1  0
 24 36  1  0
 24 37  1  0
 25 38  1  0
M  END
>  <group_name>  (1) 
JNS

>  <molecule_index>  (1) 
01658

>  <conformer_index>  (1) 
07

>  <method>  (1) 
b3lyp-d3bj

>  <basis>  (1) 
dzvp

>  <program>  (1) 
psi4

>  <initial_energy>  (1) 
-784149.2106023626 kilocalorie / mole

>  <final_energy>  (1) 
-784200.7456840691 kilocalorie / mole

$$$$
