JNS-01681-07
     RDKit          3D

 30 33  0  0  0  0  0  0  0  0999 V2000
   -0.4203   -1.3545    0.0038 F   0  0  0  0  0  0  0  0  0  0  0  0
    0.0297   -0.0788    0.0295 C   0  0  0  0  0  0  0  0  0  0  0  0
   -0.5217    0.5626   -1.0314 F   0  0  0  0  0  0  0  0  0  0  0  0
   -0.4698    0.4973    1.1489 F   0  0  0  0  0  0  0  0  0  0  0  0
    1.5442   -0.0169   -0.0019 C   0  0  0  0  0  0  0  0  0  0  0  0
    2.1377   -0.6020    1.0470 N   0  0  0  0  0  0  0  0  0  0  0  0
    3.4612   -0.5455    1.0242 C   0  0  0  0  0  0  0  0  0  0  0  0
    4.2681    0.0634    0.0234 C   0  0  0  0  0  0  0  0  0  0  0  0
    3.6187    0.6618   -1.0567 C   0  0  0  0  0  0  0  0  0  0  0  0
    2.2210    0.6147   -1.0594 C   0  0  0  0  0  0  0  0  0  0  0  0
    5.6110   -0.0662    0.3448 N   0  0  0  0  0  0  0  0  0  0  0  0
    5.6154   -0.7235    1.4825 C   0  0  0  0  0  0  0  0  0  0  0  0
    4.3572   -1.0577    1.9585 N   0  0  0  0  0  0  0  0  0  0  0  0
    4.0619   -1.7882    3.1472 C   0  0  0  0  0  0  0  0  0  0  0  0
    2.9658   -1.4374    3.9250 C   0  0  0  0  0  0  0  0  0  0  0  0
    2.7193   -2.1882    5.0878 C   0  0  0  0  0  0  0  0  0  0  0  0
    3.5855   -3.2554    5.4454 C   0  0  0  0  0  0  0  0  0  0  0  0
    3.0822   -3.7648    6.6131 N   0  0  0  0  0  0  0  0  0  0  0  0
    1.9613   -3.1096    7.0273 N   0  0  0  0  0  0  0  0  0  0  0  0
    1.7335   -2.1656    6.1271 C   0  0  0  0  0  0  0  0  0  0  0  0
    4.6899   -3.6109    4.6537 C   0  0  0  0  0  0  0  0  0  0  0  0
    4.9062   -2.8735    3.4995 C   0  0  0  0  0  0  0  0  0  0  0  0
    4.1751    1.1434   -1.8554 H   0  0  0  0  0  0  0  0  0  0  0  0
    1.6539    1.0638   -1.8661 H   0  0  0  0  0  0  0  0  0  0  0  0
    6.5051   -0.9819    2.0434 H   0  0  0  0  0  0  0  0  0  0  0  0
    2.3172   -0.6205    3.6307 H   0  0  0  0  0  0  0  0  0  0  0  0
    3.4244   -4.5405    7.1628 H   0  0  0  0  0  0  0  0  0  0  0  0
    0.8830   -1.5054    6.2418 H   0  0  0  0  0  0  0  0  0  0  0  0
    5.3416   -4.4400    4.9136 H   0  0  0  0  0  0  0  0  0  0  0  0
    5.7245   -3.1441    2.8391 H   0  0  0  0  0  0  0  0  0  0  0  0
  1  2  1  0
  2  3  1  0
  2  4  1  0
  2  5  1  0
  5  6  2  0
  5 10  1  0
  6  7  1  0
  7  8  2  0
  7 13  1  0
  8  9  1  0
  8 11  1  0
  9 10  2  0
  9 23  1  0
 10 24  1  0
 11 12  2  0
 12 13  1  0
 12 25  1  0
 13 14  1  0
 14 15  2  0
 14 22  1  0
 15 16  1  0
 15 26  1  0
 16 17  2  0
 16 20  1  0
 17 18  1  0
 17 21  1  0
 18 19  1  0
 18 27  1  0
 19 20  2  0
 20 28  1  0
 21 22  2  0
 21 29  1  0
 22 30  1  0
M  END
>  <group_name>  (1) 
JNS

>  <molecule_index>  (1) 
01681

>  <conformer_index>  (1) 
07

>  <method>  (1) 
b3lyp-d3bj

>  <basis>  (1) 
dzvp

>  <program>  (1) 
psi4

>  <initial_energy>  (1) 
-697631.4486750029 kilocalorie / mole

>  <final_energy>  (1) 
-697670.303330485 kilocalorie / mole

$$$$
