JNS-00617-00
     RDKit          3D

 44 48  0  0  0  0  0  0  0  0999 V2000
   -0.9297   -4.6071    1.3808 F   0  0  0  0  0  0  0  0  0  0  0  0
   -1.7301   -4.3731    0.3170 C   0  0  0  0  0  0  0  0  0  0  0  0
   -2.8986   -5.0301    0.5429 F   0  0  0  0  0  0  0  0  0  0  0  0
   -1.1489   -4.9629   -0.7567 F   0  0  0  0  0  0  0  0  0  0  0  0
   -1.9552   -2.8893    0.0885 C   0  0  0  0  0  0  0  0  0  0  0  0
   -0.8523   -2.1644    0.0555 N   0  0  0  0  0  0  0  0  0  0  0  0
   -1.0372   -0.8430   -0.1611 C   0  0  0  0  0  0  0  0  0  0  0  0
   -0.0970    0.2094   -0.2559 C   0  0  0  0  0  0  0  0  0  0  0  0
   -0.8512    1.3239   -0.4805 N   0  0  0  0  0  0  0  0  0  0  0  0
   -0.4196    2.7268   -0.4629 C   0  0  0  0  0  0  0  0  0  0  0  0
    0.0873    3.1402    0.9117 C   0  0  0  0  0  0  0  0  0  0  0  0
    0.2568    4.6619    1.1815 C   0  0  0  0  0  0  0  0  0  0  0  0
   -0.3377    4.4319    2.6007 C   0  0  0  0  0  0  0  0  0  0  0  0
   -0.9006    3.0678    2.1084 C   0  0  0  0  0  0  0  0  0  0  0  0
   -2.1931    1.1034   -0.5414 N   0  0  0  0  0  0  0  0  0  0  0  0
   -2.3166   -0.2251   -0.3556 C   0  0  0  0  0  0  0  0  0  0  0  0
   -3.4730   -1.0375   -0.3223 C   0  0  0  0  0  0  0  0  0  0  0  0
   -3.2779   -2.3854   -0.0943 C   0  0  0  0  0  0  0  0  0  0  0  0
    1.3635    0.1595   -0.1272 C   0  0  0  0  0  0  0  0  0  0  0  0
    1.9116   -0.6792    0.8741 C   0  0  0  0  0  0  0  0  0  0  0  0
    3.2889   -0.7872    1.0685 C   0  0  0  0  0  0  0  0  0  0  0  0
    4.1080   -0.0377    0.2270 C   0  0  0  0  0  0  0  0  0  0  0  0
    5.4951    0.1128    0.1324 N   0  0  0  0  0  0  0  0  0  0  0  0
    5.7121    0.9706   -0.9400 C   0  0  0  0  0  0  0  0  0  0  0  0
    6.9559    1.2958   -1.3537 O   0  0  0  0  0  0  0  0  0  0  0  0
    4.6242    1.4137   -1.4999 N   0  0  0  0  0  0  0  0  0  0  0  0
    3.5880    0.7924   -0.7966 C   0  0  0  0  0  0  0  0  0  0  0  0
    2.2088    0.8878   -0.9805 C   0  0  0  0  0  0  0  0  0  0  0  0
   -1.3090    3.2971   -0.7338 H   0  0  0  0  0  0  0  0  0  0  0  0
    0.3394    2.8939   -1.2294 H   0  0  0  0  0  0  0  0  0  0  0  0
    1.0133    2.6067    1.1436 H   0  0  0  0  0  0  0  0  0  0  0  0
   -0.4138    5.2598    0.5544 H   0  0  0  0  0  0  0  0  0  0  0  0
    1.2664    5.0756    1.1086 H   0  0  0  0  0  0  0  0  0  0  0  0
    0.4464    4.3020    3.3525 H   0  0  0  0  0  0  0  0  0  0  0  0
   -1.0565    5.1691    2.9684 H   0  0  0  0  0  0  0  0  0  0  0  0
   -0.8128    2.2071    2.7768 H   0  0  0  0  0  0  0  0  0  0  0  0
   -1.9398    3.1458    1.7741 H   0  0  0  0  0  0  0  0  0  0  0  0
   -4.4646   -0.6178   -0.4652 H   0  0  0  0  0  0  0  0  0  0  0  0
   -4.1181   -3.0686   -0.0487 H   0  0  0  0  0  0  0  0  0  0  0  0
    1.2386   -1.2561    1.4982 H   0  0  0  0  0  0  0  0  0  0  0  0
    3.6901   -1.4344    1.8437 H   0  0  0  0  0  0  0  0  0  0  0  0
    6.1803   -0.5092    0.5420 H   0  0  0  0  0  0  0  0  0  0  0  0
    7.5919    1.1851   -0.6289 H   0  0  0  0  0  0  0  0  0  0  0  0
    1.8185    1.4880   -1.7950 H   0  0  0  0  0  0  0  0  0  0  0  0
  1  2  1  0
  2  3  1  0
  2  4  1  0
  2  5  1  0
  5  6  2  0
  5 18  1  0
  6  7  1  0
  7  8  2  0
  7 16  1  0
  8  9  1  0
  8 19  1  0
  9 10  1  0
  9 15  1  0
 10 11  1  0
 10 29  1  0
 10 30  1  0
 11 12  1  0
 11 14  1  0
 11 31  1  0
 12 13  1  0
 12 32  1  0
 12 33  1  0
 13 14  1  0
 13 34  1  0
 13 35  1  0
 14 36  1  0
 14 37  1  0
 15 16  2  0
 16 17  1  0
 17 18  2  0
 17 38  1  0
 18 39  1  0
 19 20  2  0
 19 28  1  0
 20 21  1  0
 20 40  1  0
 21 22  2  0
 21 41  1  0
 22 23  1  0
 22 27  1  0
 23 24  1  0
 23 42  1  0
 24 25  1  0
 24 26  2  0
 25 43  1  0
 26 27  1  0
 27 28  2  0
 28 44  1  0
M  END
>  <group_name>  (1) 
JNS

>  <molecule_index>  (1) 
00617

>  <conformer_index>  (1) 
00

>  <method>  (1) 
b3lyp-d3bj

>  <basis>  (1) 
dzvp

>  <program>  (1) 
psi4

>  <initial_energy>  (1) 
-867404.7078786602 kilocalorie / mole

>  <final_energy>  (1) 
-867476.4196717326 kilocalorie / mole

$$$$
