JNS-01242-06
     RDKit          3D

 41 45  0  0  0  0  0  0  0  0999 V2000
   -0.8951    4.2193    2.3622 F   0  0  0  0  0  0  0  0  0  0  0  0
   -1.3176    4.3155    1.0791 C   0  0  0  0  0  0  0  0  0  0  0  0
   -0.3755    5.0108    0.4007 F   0  0  0  0  0  0  0  0  0  0  0  0
   -2.4453    5.0714    1.0859 F   0  0  0  0  0  0  0  0  0  0  0  0
   -1.5609    2.9516    0.4650 C   0  0  0  0  0  0  0  0  0  0  0  0
   -2.8315    2.5892   -0.0113 C   0  0  0  0  0  0  0  0  0  0  0  0
   -3.0283    1.3211   -0.5718 C   0  0  0  0  0  0  0  0  0  0  0  0
   -1.9204    0.4762   -0.6211 C   0  0  0  0  0  0  0  0  0  0  0  0
   -1.7502   -0.8167   -1.0910 N   0  0  0  0  0  0  0  0  0  0  0  0
   -0.4811   -1.1070   -0.8801 C   0  0  0  0  0  0  0  0  0  0  0  0
    0.1747   -2.4259   -1.1479 C   0  0  2  0  0  0  0  0  0  0  0  0
   -0.7260   -3.4307   -1.9107 C   0  0  0  0  0  0  0  0  0  0  0  0
   -0.9708   -4.5401   -0.8779 C   0  0  0  0  0  0  0  0  0  0  0  0
    0.2004   -4.5458   -0.0537 O   0  0  0  0  0  0  0  0  0  0  0  0
    0.5129   -3.1804    0.1819 C   0  0  0  0  0  0  0  0  0  0  0  0
    0.2215   -0.0583   -0.2862 N   0  0  0  0  0  0  0  0  0  0  0  0
   -0.6937    0.9730   -0.1047 C   0  0  0  0  0  0  0  0  0  0  0  0
   -0.4758    2.1627    0.4294 N   0  0  0  0  0  0  0  0  0  0  0  0
    1.5946   -0.0416    0.1063 C   0  0  0  0  0  0  0  0  0  0  0  0
    1.9114   -0.0548    1.4750 C   0  0  0  0  0  0  0  0  0  0  0  0
    3.2381   -0.0480    1.9142 C   0  0  0  0  0  0  0  0  0  0  0  0
    4.2403   -0.0357    0.9422 C   0  0  0  0  0  0  0  0  0  0  0  0
    5.6400   -0.0276    1.0439 N   0  0  0  0  0  0  0  0  0  0  0  0
    6.0297   -0.0032   -0.1924 C   0  0  0  0  0  0  0  0  0  0  0  0
    7.2719    0.0155   -0.6677 O   0  0  0  0  0  0  0  0  0  0  0  0
    5.0641    0.0041   -1.1544 O   0  0  0  0  0  0  0  0  0  0  0  0
    3.8872   -0.0178   -0.4181 C   0  0  0  0  0  0  0  0  0  0  0  0
    2.5862   -0.0090   -0.8850 C   0  0  0  0  0  0  0  0  0  0  0  0
   -3.6511    3.2944    0.0594 H   0  0  0  0  0  0  0  0  0  0  0  0
   -3.9979    1.0095   -0.9491 H   0  0  0  0  0  0  0  0  0  0  0  0
    1.1018   -2.2539   -1.6998 H   0  0  0  0  0  0  0  0  0  0  0  0
   -1.6509   -2.9661   -2.2536 H   0  0  0  0  0  0  0  0  0  0  0  0
   -0.1868   -3.8270   -2.7743 H   0  0  0  0  0  0  0  0  0  0  0  0
   -1.0773   -5.5369   -1.3105 H   0  0  0  0  0  0  0  0  0  0  0  0
   -1.8592   -4.3164   -0.2686 H   0  0  0  0  0  0  0  0  0  0  0  0
    1.5659   -3.1112    0.4607 H   0  0  0  0  0  0  0  0  0  0  0  0
   -0.0993   -2.7834    1.0061 H   0  0  0  0  0  0  0  0  0  0  0  0
    1.0994   -0.0638    2.1949 H   0  0  0  0  0  0  0  0  0  0  0  0
    3.4824   -0.0528    2.9715 H   0  0  0  0  0  0  0  0  0  0  0  0
    7.8690    0.0143    0.1022 H   0  0  0  0  0  0  0  0  0  0  0  0
    2.3377    0.0334   -1.9401 H   0  0  0  0  0  0  0  0  0  0  0  0
  1  2  1  0
  2  3  1  0
  2  4  1  0
  2  5  1  0
  5  6  2  0
  5 18  1  0
  6  7  1  0
  6 29  1  0
  7  8  2  0
  7 30  1  0
  8  9  1  0
  8 17  1  0
  9 10  2  0
 10 11  1  0
 10 16  1  0
 11 12  1  0
 11 15  1  0
 11 31  1  6
 12 13  1  0
 12 32  1  0
 12 33  1  0
 13 14  1  0
 13 34  1  0
 13 35  1  0
 14 15  1  0
 15 36  1  0
 15 37  1  0
 16 17  1  0
 16 19  1  0
 17 18  2  0
 19 20  2  0
 19 28  1  0
 20 21  1  0
 20 38  1  0
 21 22  2  0
 21 39  1  0
 22 23  1  0
 22 27  1  0
 23 24  2  0
 24 25  1  0
 24 26  1  0
 25 40  1  0
 26 27  1  0
 27 28  2  0
 28 41  1  0
M  END
>  <group_name>  (1) 
JNS

>  <molecule_index>  (1) 
01242

>  <conformer_index>  (1) 
06

>  <method>  (1) 
b3lyp-d3bj

>  <basis>  (1) 
dzvp

>  <program>  (1) 
psi4

>  <initial_energy>  (1) 
-902435.2853939964 kilocalorie / mole

>  <final_energy>  (1) 
-902513.2585815459 kilocalorie / mole

$$$$
