JNS-02158-02
     RDKit          3D

 42 45  0  0  0  0  0  0  0  0999 V2000
   -0.7872    0.7715   -0.8498 C   0  0  0  0  0  0  0  0  0  0  0  0
    0.3616    1.6169   -1.4351 C   0  0  2  0  0  0  0  0  0  0  0  0
    1.0133    2.4801   -0.4043 N   0  0  0  0  0  0  0  0  0  0  0  0
    1.1831    3.9338   -0.6270 C   0  0  0  0  0  0  0  0  0  0  0  0
   -0.0566    4.6276   -1.2026 C   0  0  0  0  0  0  0  0  0  0  0  0
   -0.4859    3.8269   -2.3826 C   0  0  0  0  0  0  0  0  0  0  0  0
   -0.2122    2.4925   -2.5082 C   0  0  0  0  0  0  0  0  0  0  0  0
   -0.6729    2.0450   -3.7203 N   0  0  0  0  0  0  0  0  0  0  0  0
   -1.2059    3.0347   -4.3689 N   0  0  0  0  0  0  0  0  0  0  0  0
   -1.1027    4.1517   -3.5652 N   0  0  0  0  0  0  0  0  0  0  0  0
   -1.6321    5.3935   -3.9786 C   0  0  0  0  0  0  0  0  0  0  0  0
   -1.8270    6.2899   -3.0058 N   0  0  0  0  0  0  0  0  0  0  0  0
   -2.3301    7.4713   -3.3805 C   0  0  0  0  0  0  0  0  0  0  0  0
   -2.6418    7.7175   -4.7125 C   0  0  0  0  0  0  0  0  0  0  0  0
   -3.1597    8.9028   -5.0902 F   0  0  0  0  0  0  0  0  0  0  0  0
   -2.4024    6.7143   -5.6491 C   0  0  0  0  0  0  0  0  0  0  0  0
   -1.8820    5.5425   -5.2801 N   0  0  0  0  0  0  0  0  0  0  0  0
    1.7141    1.9685    0.6541 C   0  0  0  0  0  0  0  0  0  0  0  0
    2.2407    2.6612    1.5268 O   0  0  0  0  0  0  0  0  0  0  0  0
    1.8768    0.4715    0.7836 C   0  0  0  0  0  0  0  0  0  0  0  0
    1.3746   -0.2004    1.9032 C   0  0  0  0  0  0  0  0  0  0  0  0
    1.6246   -1.5640    2.0502 C   0  0  0  0  0  0  0  0  0  0  0  0
    2.3483   -2.2763    1.1758 N   0  0  0  0  0  0  0  0  0  0  0  0
    2.8589   -1.6419    0.1236 C   0  0  0  0  0  0  0  0  0  0  0  0
    2.6492   -0.2772   -0.0967 C   0  0  0  0  0  0  0  0  0  0  0  0
    3.2071    0.3209   -1.1713 F   0  0  0  0  0  0  0  0  0  0  0  0
    3.6948   -2.4521   -0.8586 C   0  0  0  0  0  0  0  0  0  0  0  0
    4.9527   -1.9546   -0.9500 F   0  0  0  0  0  0  0  0  0  0  0  0
    3.7856   -3.7384   -0.5002 F   0  0  0  0  0  0  0  0  0  0  0  0
    3.1542   -2.4040   -2.1032 F   0  0  0  0  0  0  0  0  0  0  0  0
   -1.2714    0.2270   -1.6647 H   0  0  0  0  0  0  0  0  0  0  0  0
   -1.5280    1.4250   -0.3793 H   0  0  0  0  0  0  0  0  0  0  0  0
   -0.4399    0.0452   -0.1148 H   0  0  0  0  0  0  0  0  0  0  0  0
    1.1071    0.9596   -1.8903 H   0  0  0  0  0  0  0  0  0  0  0  0
    1.4559    4.3687    0.3324 H   0  0  0  0  0  0  0  0  0  0  0  0
    2.0250    4.0833   -1.3148 H   0  0  0  0  0  0  0  0  0  0  0  0
   -0.8606    4.6854   -0.4606 H   0  0  0  0  0  0  0  0  0  0  0  0
    0.1983    5.6536   -1.4744 H   0  0  0  0  0  0  0  0  0  0  0  0
   -2.4934    8.2251   -2.6130 H   0  0  0  0  0  0  0  0  0  0  0  0
   -2.6240    6.8649   -6.7041 H   0  0  0  0  0  0  0  0  0  0  0  0
    0.7965    0.3429    2.6443 H   0  0  0  0  0  0  0  0  0  0  0  0
    1.2323   -2.1106    2.9044 H   0  0  0  0  0  0  0  0  0  0  0  0
  1  2  1  0
  1 31  1  0
  1 32  1  0
  1 33  1  0
  2  3  1  0
  2  7  1  0
  2 34  1  6
  3  4  1  0
  3 18  1  0
  4  5  1  0
  4 35  1  0
  4 36  1  0
  5  6  1  0
  5 37  1  0
  5 38  1  0
  6  7  2  0
  6 10  1  0
  7  8  1  0
  8  9  2  0
  9 10  1  0
 10 11  1  0
 11 12  2  0
 11 17  1  0
 12 13  1  0
 13 14  2  0
 13 39  1  0
 14 15  1  0
 14 16  1  0
 16 17  2  0
 16 40  1  0
 18 19  2  0
 18 20  1  0
 20 21  2  0
 20 25  1  0
 21 22  1  0
 21 41  1  0
 22 23  2  0
 22 42  1  0
 23 24  1  0
 24 25  2  0
 24 27  1  0
 25 26  1  0
 27 28  1  0
 27 29  1  0
 27 30  1  0
M  END
>  <group_name>  (1) 
JNS

>  <molecule_index>  (1) 
02158

>  <conformer_index>  (1) 
02

>  <method>  (1) 
b3lyp-d3bj

>  <basis>  (1) 
dzvp

>  <program>  (1) 
psi4

>  <initial_energy>  (1) 
-1012137.7413650018 kilocalorie / mole

>  <final_energy>  (1) 
-1012177.2717880537 kilocalorie / mole

$$$$
