JNS-01155-06
     RDKit          3D

 46 50  0  0  0  0  0  0  0  0999 V2000
   -0.6399   -0.0832    0.4892 F   0  0  0  0  0  0  0  0  0  0  0  0
    0.0490    0.1212   -0.6589 C   0  0  0  0  0  0  0  0  0  0  0  0
   -0.2530    1.3448   -1.1159 F   0  0  0  0  0  0  0  0  0  0  0  0
   -0.4178   -0.7809   -1.5651 F   0  0  0  0  0  0  0  0  0  0  0  0
    1.5326   -0.0229   -0.4446 C   0  0  0  0  0  0  0  0  0  0  0  0
    2.4056    0.8532   -0.8838 N   0  0  0  0  0  0  0  0  0  0  0  0
    3.6419    0.3736   -0.4782 C   0  0  0  0  0  0  0  0  0  0  0  0
    3.4717   -0.8391    0.2291 C   0  0  0  0  0  0  0  0  0  0  0  0
    4.4015   -1.6079    0.7886 N   0  0  0  0  0  0  0  0  0  0  0  0
    5.6332   -1.1137    0.6201 C   0  0  0  0  0  0  0  0  0  0  0  0
    5.9659    0.0648   -0.0528 C   0  0  0  0  0  0  0  0  0  0  0  0
    4.9639    0.8812   -0.6457 C   0  0  0  0  0  0  0  0  0  0  0  0
    5.2855    2.0290   -1.3035 N   0  0  0  0  0  0  0  0  0  0  0  0
    6.6893    2.4417   -1.4212 C   0  0  0  0  0  0  0  0  0  0  0  0
    6.7913    3.7172   -2.2532 C   0  0  0  0  0  0  0  0  0  0  0  0
    5.9875    4.7627   -1.7249 O   0  0  0  0  0  0  0  0  0  0  0  0
    4.6210    4.3822   -1.4842 C   0  0  0  0  0  0  0  0  0  0  0  0
    4.3075    2.9469   -1.8971 C   0  0  0  0  0  0  0  0  0  0  0  0
    6.7262   -1.9605    1.2501 C   0  0  0  0  0  0  0  0  0  0  0  0
    7.9607   -1.4262    1.0570 F   0  0  0  0  0  0  0  0  0  0  0  0
    6.5516   -2.0812    2.5863 F   0  0  0  0  0  0  0  0  0  0  0  0
    6.7492   -3.2093    0.7329 F   0  0  0  0  0  0  0  0  0  0  0  0
    2.1009   -1.0830    0.2362 N   0  0  0  0  0  0  0  0  0  0  0  0
    1.4709   -2.2202    0.8428 C   0  0  0  0  0  0  0  0  0  0  0  0
    1.5473   -2.3737    2.2182 C   0  0  0  0  0  0  0  0  0  0  0  0
    0.9483   -3.5116    2.7844 C   0  0  0  0  0  0  0  0  0  0  0  0
    0.2897   -4.4529    1.9476 C   0  0  0  0  0  0  0  0  0  0  0  0
   -0.1851   -5.4230    2.7888 N   0  0  0  0  0  0  0  0  0  0  0  0
    0.1196   -5.1782    4.0950 N   0  0  0  0  0  0  0  0  0  0  0  0
    0.7959   -4.0404    4.1070 C   0  0  0  0  0  0  0  0  0  0  0  0
    0.2250   -4.2962    0.5527 C   0  0  0  0  0  0  0  0  0  0  0  0
    0.8320   -3.1728    0.0130 C   0  0  0  0  0  0  0  0  0  0  0  0
    7.0068    0.3463   -0.1061 H   0  0  0  0  0  0  0  0  0  0  0  0
    7.1098    2.6256   -0.4239 H   0  0  0  0  0  0  0  0  0  0  0  0
    7.2840    1.6523   -1.9004 H   0  0  0  0  0  0  0  0  0  0  0  0
    6.5358    3.5123   -3.3027 H   0  0  0  0  0  0  0  0  0  0  0  0
    7.8217    4.0795   -2.2294 H   0  0  0  0  0  0  0  0  0  0  0  0
    3.9687    5.0684   -2.0372 H   0  0  0  0  0  0  0  0  0  0  0  0
    4.4260    4.5069   -0.4123 H   0  0  0  0  0  0  0  0  0  0  0  0
    4.3183    2.8459   -2.9899 H   0  0  0  0  0  0  0  0  0  0  0  0
    3.3061    2.6864   -1.5645 H   0  0  0  0  0  0  0  0  0  0  0  0
    2.0627   -1.6372    2.8260 H   0  0  0  0  0  0  0  0  0  0  0  0
   -0.7007   -6.2605    2.5574 H   0  0  0  0  0  0  0  0  0  0  0  0
    1.1523   -3.6356    5.0459 H   0  0  0  0  0  0  0  0  0  0  0  0
   -0.2683   -5.0236   -0.0853 H   0  0  0  0  0  0  0  0  0  0  0  0
    0.8235   -3.0136   -1.0600 H   0  0  0  0  0  0  0  0  0  0  0  0
  1  2  1  0
  2  3  1  0
  2  4  1  0
  2  5  1  0
  5  6  2  0
  5 23  1  0
  6  7  1  0
  7  8  2  0
  7 12  1  0
  8  9  1  0
  8 23  1  0
  9 10  2  0
 10 11  1  0
 10 19  1  0
 11 12  2  0
 11 33  1  0
 12 13  1  0
 13 14  1  0
 13 18  1  0
 14 15  1  0
 14 34  1  0
 14 35  1  0
 15 16  1  0
 15 36  1  0
 15 37  1  0
 16 17  1  0
 17 18  1  0
 17 38  1  0
 17 39  1  0
 18 40  1  0
 18 41  1  0
 19 20  1  0
 19 21  1  0
 19 22  1  0
 23 24  1  0
 24 25  2  0
 24 32  1  0
 25 26  1  0
 25 42  1  0
 26 27  2  0
 26 30  1  0
 27 28  1  0
 27 31  1  0
 28 29  1  0
 28 43  1  0
 29 30  2  0
 30 44  1  0
 31 32  2  0
 31 45  1  0
 32 46  1  0
M  END
>  <group_name>  (1) 
JNS

>  <molecule_index>  (1) 
01155

>  <conformer_index>  (1) 
06

>  <method>  (1) 
b3lyp-d3bj

>  <basis>  (1) 
dzvp

>  <program>  (1) 
psi4

>  <initial_energy>  (1) 
-1089042.2459292095 kilocalorie / mole

>  <final_energy>  (1) 
-1089098.5938926227 kilocalorie / mole

$$$$
