JNS-01384-07
     RDKit          3D

 36 39  0  0  0  0  0  0  0  0999 V2000
   -0.5657   -0.5766   -0.8243 C   0  0  0  0  0  0  0  0  0  0  0  0
    0.0397    0.5023    0.0943 C   0  0  0  0  0  0  0  0  0  0  0  0
    1.5282    0.3956    0.1972 C   0  0  0  0  0  0  0  0  0  0  0  0
    2.3737    1.2159   -0.3974 N   0  0  0  0  0  0  0  0  0  0  0  0
    3.6358    0.7155   -0.1201 C   0  0  0  0  0  0  0  0  0  0  0  0
    3.5318   -0.4585    0.6730 C   0  0  0  0  0  0  0  0  0  0  0  0
    4.5245   -1.2087    1.1215 N   0  0  0  0  0  0  0  0  0  0  0  0
    5.7429   -0.7720    0.7666 C   0  0  0  0  0  0  0  0  0  0  0  0
    5.9894    0.3721   -0.0095 C   0  0  0  0  0  0  0  0  0  0  0  0
    4.9157    1.1440   -0.4700 C   0  0  0  0  0  0  0  0  0  0  0  0
    6.8828   -1.6319    1.2731 C   0  0  0  0  0  0  0  0  0  0  0  0
    6.8891   -1.7146    2.6238 F   0  0  0  0  0  0  0  0  0  0  0  0
    8.0907   -1.1393    0.8967 F   0  0  0  0  0  0  0  0  0  0  0  0
    6.8040   -2.8980    0.7977 F   0  0  0  0  0  0  0  0  0  0  0  0
    2.1679   -0.6445    0.8743 N   0  0  0  0  0  0  0  0  0  0  0  0
    1.5749   -1.6951    1.6362 C   0  0  0  0  0  0  0  0  0  0  0  0
    1.7697   -3.0214    1.2213 C   0  0  0  0  0  0  0  0  0  0  0  0
    1.1661   -3.9800    2.0116 C   0  0  0  0  0  0  0  0  0  0  0  0
    0.3967   -3.6995    3.1544 C   0  0  0  0  0  0  0  0  0  0  0  0
   -0.0604   -4.9094    3.6990 N   0  0  0  0  0  0  0  0  0  0  0  0
    0.4327   -5.8020    2.8977 C   0  0  0  0  0  0  0  0  0  0  0  0
    0.3021   -7.1248    2.9551 O   0  0  0  0  0  0  0  0  0  0  0  0
    1.1834   -5.3594    1.8511 O   0  0  0  0  0  0  0  0  0  0  0  0
    0.2223   -2.3748    3.5569 C   0  0  0  0  0  0  0  0  0  0  0  0
    0.8319   -1.3797    2.7866 C   0  0  0  0  0  0  0  0  0  0  0  0
   -0.3920   -1.5811   -0.4285 H   0  0  0  0  0  0  0  0  0  0  0  0
   -1.6465   -0.4305   -0.9132 H   0  0  0  0  0  0  0  0  0  0  0  0
   -0.1282   -0.5202   -1.8254 H   0  0  0  0  0  0  0  0  0  0  0  0
   -0.1716    1.4980   -0.3017 H   0  0  0  0  0  0  0  0  0  0  0  0
   -0.4177    0.4358    1.0859 H   0  0  0  0  0  0  0  0  0  0  0  0
    7.0099    0.6482   -0.2473 H   0  0  0  0  0  0  0  0  0  0  0  0
    5.0712    2.0338   -1.0729 H   0  0  0  0  0  0  0  0  0  0  0  0
    2.3614   -3.2629    0.3456 H   0  0  0  0  0  0  0  0  0  0  0  0
   -0.2435   -7.3205    3.7381 H   0  0  0  0  0  0  0  0  0  0  0  0
   -0.3514   -2.1290    4.4447 H   0  0  0  0  0  0  0  0  0  0  0  0
    0.7498   -0.3392    3.0850 H   0  0  0  0  0  0  0  0  0  0  0  0
  1  2  1  0
  1 26  1  0
  1 27  1  0
  1 28  1  0
  2  3  1  0
  2 29  1  0
  2 30  1  0
  3  4  2  0
  3 15  1  0
  4  5  1  0
  5  6  2  0
  5 10  1  0
  6  7  1  0
  6 15  1  0
  7  8  2  0
  8  9  1  0
  8 11  1  0
  9 10  2  0
  9 31  1  0
 10 32  1  0
 11 12  1  0
 11 13  1  0
 11 14  1  0
 15 16  1  0
 16 17  2  0
 16 25  1  0
 17 18  1  0
 17 33  1  0
 18 19  2  0
 18 23  1  0
 19 20  1  0
 19 24  1  0
 20 21  2  0
 21 22  1  0
 21 23  1  0
 22 34  1  0
 24 25  2  0
 24 35  1  0
 25 36  1  0
M  END
>  <group_name>  (1) 
JNS

>  <molecule_index>  (1) 
01384

>  <conformer_index>  (1) 
07

>  <method>  (1) 
b3lyp-d3bj

>  <basis>  (1) 
dzvp

>  <program>  (1) 
psi4

>  <initial_energy>  (1) 
-806666.6535261297 kilocalorie / mole

>  <final_energy>  (1) 
-806720.7327031256 kilocalorie / mole

$$$$
