JNS-01658-06
     RDKit          3D

 38 41  0  0  0  0  0  0  0  0999 V2000
   -0.1436   -1.8708    2.1604 C   0  0  0  0  0  0  0  0  0  0  0  0
   -0.7434   -0.7851    1.3308 C   0  0  0  0  0  0  0  0  0  0  0  0
   -2.0348   -0.5211    1.2650 N   0  0  0  0  0  0  0  0  0  0  0  0
   -2.1459    0.5648    0.4120 C   0  0  0  0  0  0  0  0  0  0  0  0
   -0.8598    0.9622   -0.0432 C   0  0  0  0  0  0  0  0  0  0  0  0
   -0.5781    1.9660   -0.8577 N   0  0  0  0  0  0  0  0  0  0  0  0
   -1.6542    2.6491   -1.2766 C   0  0  0  0  0  0  0  0  0  0  0  0
   -2.9791    2.3622   -0.9092 C   0  0  0  0  0  0  0  0  0  0  0  0
   -3.2437    1.2947   -0.0427 C   0  0  0  0  0  0  0  0  0  0  0  0
   -1.3339    3.8021   -2.2052 C   0  0  0  0  0  0  0  0  0  0  0  0
   -0.5319    4.7178   -1.6086 F   0  0  0  0  0  0  0  0  0  0  0  0
   -2.4556    4.4548   -2.6031 F   0  0  0  0  0  0  0  0  0  0  0  0
   -0.6957    3.3868   -3.3242 F   0  0  0  0  0  0  0  0  0  0  0  0
    0.0304    0.0753    0.5533 N   0  0  0  0  0  0  0  0  0  0  0  0
    1.4493    0.0826    0.3977 C   0  0  0  0  0  0  0  0  0  0  0  0
    2.1009   -1.0475   -0.1184 C   0  0  0  0  0  0  0  0  0  0  0  0
    3.4799   -1.0045   -0.2581 C   0  0  0  0  0  0  0  0  0  0  0  0
    4.1839    0.1603    0.0915 C   0  0  0  0  0  0  0  0  0  0  0  0
    5.5516   -0.0378   -0.1534 N   0  0  0  0  0  0  0  0  0  0  0  0
    5.8209   -1.3004   -0.6694 C   0  0  0  0  0  0  0  0  0  0  0  0
    6.9228   -1.7238   -0.9709 O   0  0  0  0  0  0  0  0  0  0  0  0
    4.4671   -2.0224   -0.7727 C   0  0  0  0  0  0  0  0  0  0  0  0
    3.5565    1.3060    0.5880 C   0  0  0  0  0  0  0  0  0  0  0  0
    4.3422    2.5461    0.9332 C   0  0  0  0  0  0  0  0  0  0  0  0
    2.1650    1.2345    0.7396 C   0  0  0  0  0  0  0  0  0  0  0  0
    0.1497   -2.7287    1.5464 H   0  0  0  0  0  0  0  0  0  0  0  0
    0.7499   -1.5205    2.6850 H   0  0  0  0  0  0  0  0  0  0  0  0
   -0.8884   -2.2048    2.8839 H   0  0  0  0  0  0  0  0  0  0  0  0
   -3.7868    2.9710   -1.2980 H   0  0  0  0  0  0  0  0  0  0  0  0
   -4.2559    1.0467    0.2630 H   0  0  0  0  0  0  0  0  0  0  0  0
    1.5293   -1.9224   -0.4143 H   0  0  0  0  0  0  0  0  0  0  0  0
    6.2842    0.6442   -0.0026 H   0  0  0  0  0  0  0  0  0  0  0  0
    4.2935   -2.3126   -1.8137 H   0  0  0  0  0  0  0  0  0  0  0  0
    4.5025   -2.9411   -0.1789 H   0  0  0  0  0  0  0  0  0  0  0  0
    5.0963    2.3426    1.7033 H   0  0  0  0  0  0  0  0  0  0  0  0
    3.6876    3.3353    1.3096 H   0  0  0  0  0  0  0  0  0  0  0  0
    4.8651    2.9426    0.0546 H   0  0  0  0  0  0  0  0  0  0  0  0
    1.6222    2.0960    1.1162 H   0  0  0  0  0  0  0  0  0  0  0  0
  1  2  1  0
  1 26  1  0
  1 27  1  0
  1 28  1  0
  2  3  2  0
  2 14  1  0
  3  4  1  0
  4  5  2  0
  4  9  1  0
  5  6  1  0
  5 14  1  0
  6  7  2  0
  7  8  1  0
  7 10  1  0
  8  9  2  0
  8 29  1  0
  9 30  1  0
 10 11  1  0
 10 12  1  0
 10 13  1  0
 14 15  1  0
 15 16  2  0
 15 25  1  0
 16 17  1  0
 16 31  1  0
 17 18  2  0
 17 22  1  0
 18 19  1  0
 18 23  1  0
 19 20  1  0
 19 32  1  0
 20 21  2  0
 20 22  1  0
 22 33  1  0
 22 34  1  0
 23 24  1  0
 23 25  2  0
 24 35  1  0
 24 36  1  0
 24 37  1  0
 25 38  1  0
M  END
>  <group_name>  (1) 
JNS

>  <molecule_index>  (1) 
01658

>  <conformer_index>  (1) 
06

>  <method>  (1) 
b3lyp-d3bj

>  <basis>  (1) 
dzvp

>  <program>  (1) 
psi4

>  <initial_energy>  (1) 
-784139.5891344986 kilocalorie / mole

>  <final_energy>  (1) 
-784200.7455417137 kilocalorie / mole

$$$$
