JNS-01358-05
     RDKit          3D

 41 45  0  0  0  0  0  0  0  0999 V2000
   -2.5991   -2.3420   -1.7409 F   0  0  0  0  0  0  0  0  0  0  0  0
   -2.0559   -1.1787   -1.3264 C   0  0  0  0  0  0  0  0  0  0  0  0
   -2.8790   -0.1561   -1.2363 N   0  0  0  0  0  0  0  0  0  0  0  0
   -2.3423    1.0073   -0.8286 C   0  0  0  0  0  0  0  0  0  0  0  0
   -1.0001    1.1637   -0.4933 C   0  0  0  0  0  0  0  0  0  0  0  0
   -0.1495    0.0468   -0.5898 C   0  0  0  0  0  0  0  0  0  0  0  0
   -0.6937   -1.1644   -1.0319 C   0  0  0  0  0  0  0  0  0  0  0  0
    1.2914    0.0979   -0.2983 C   0  0  0  0  0  0  0  0  0  0  0  0
    2.1714   -0.6749   -0.9151 N   0  0  0  0  0  0  0  0  0  0  0  0
    3.4023   -0.3088   -0.4100 C   0  0  0  0  0  0  0  0  0  0  0  0
    3.2464    0.7215    0.5547 C   0  0  0  0  0  0  0  0  0  0  0  0
    4.2047    1.3129    1.2504 N   0  0  0  0  0  0  0  0  0  0  0  0
    5.4362    0.8631    0.9738 C   0  0  0  0  0  0  0  0  0  0  0  0
    5.7331   -0.1455    0.0391 C   0  0  0  0  0  0  0  0  0  0  0  0
    4.6989   -0.7547   -0.6769 C   0  0  0  0  0  0  0  0  0  0  0  0
    6.5376    1.5333    1.7722 C   0  0  0  0  0  0  0  0  0  0  0  0
    7.7657    1.0973    1.3961 F   0  0  0  0  0  0  0  0  0  0  0  0
    6.4136    1.2858    3.0971 F   0  0  0  0  0  0  0  0  0  0  0  0
    6.5229    2.8768    1.6136 F   0  0  0  0  0  0  0  0  0  0  0  0
    1.8794    0.9700    0.6182 N   0  0  0  0  0  0  0  0  0  0  0  0
    1.2505    1.8193    1.5808 C   0  0  0  0  0  0  0  0  0  0  0  0
    1.5736    3.1860    1.6019 C   0  0  0  0  0  0  0  0  0  0  0  0
    0.9547    3.9981    2.5376 C   0  0  0  0  0  0  0  0  0  0  0  0
    0.0193    3.4496    3.4381 C   0  0  0  0  0  0  0  0  0  0  0  0
   -0.4661    4.4649    4.2694 N   0  0  0  0  0  0  0  0  0  0  0  0
    0.1006    5.7043    3.9830 C   0  0  0  0  0  0  0  0  0  0  0  0
   -0.1553    6.7476    4.5556 O   0  0  0  0  0  0  0  0  0  0  0  0
    1.0842    5.4726    2.8247 C   0  0  0  0  0  0  0  0  0  0  0  0
   -0.2998    2.0942    3.4304 C   0  0  0  0  0  0  0  0  0  0  0  0
    0.3411    1.2770    2.4917 C   0  0  0  0  0  0  0  0  0  0  0  0
   -3.0255    1.8518   -0.7699 H   0  0  0  0  0  0  0  0  0  0  0  0
   -0.6338    2.1332   -0.1797 H   0  0  0  0  0  0  0  0  0  0  0  0
   -0.0820   -2.0518   -1.1439 H   0  0  0  0  0  0  0  0  0  0  0  0
    6.7635   -0.4412   -0.1189 H   0  0  0  0  0  0  0  0  0  0  0  0
    4.8917   -1.5373   -1.4047 H   0  0  0  0  0  0  0  0  0  0  0  0
    2.2993    3.5821    0.8984 H   0  0  0  0  0  0  0  0  0  0  0  0
   -1.1486    4.3473    5.0084 H   0  0  0  0  0  0  0  0  0  0  0  0
    0.8092    6.1135    1.9814 H   0  0  0  0  0  0  0  0  0  0  0  0
    2.0903    5.7643    3.1420 H   0  0  0  0  0  0  0  0  0  0  0  0
   -1.0132    1.6721    4.1322 H   0  0  0  0  0  0  0  0  0  0  0  0
    0.1254    0.2135    2.4628 H   0  0  0  0  0  0  0  0  0  0  0  0
  1  2  1  0
  2  3  2  0
  2  7  1  0
  3  4  1  0
  4  5  2  0
  4 31  1  0
  5  6  1  0
  5 32  1  0
  6  7  2  0
  6  8  1  0
  7 33  1  0
  8  9  2  0
  8 20  1  0
  9 10  1  0
 10 11  2  0
 10 15  1  0
 11 12  1  0
 11 20  1  0
 12 13  2  0
 13 14  1  0
 13 16  1  0
 14 15  2  0
 14 34  1  0
 15 35  1  0
 16 17  1  0
 16 18  1  0
 16 19  1  0
 20 21  1  0
 21 22  2  0
 21 30  1  0
 22 23  1  0
 22 36  1  0
 23 24  2  0
 23 28  1  0
 24 25  1  0
 24 29  1  0
 25 26  1  0
 25 37  1  0
 26 27  2  0
 26 28  1  0
 28 38  1  0
 28 39  1  0
 29 30  2  0
 29 40  1  0
 30 41  1  0
M  END
>  <group_name>  (1) 
JNS

>  <molecule_index>  (1) 
01358

>  <conformer_index>  (1) 
05

>  <method>  (1) 
b3lyp-d3bj

>  <basis>  (1) 
dzvp

>  <program>  (1) 
psi4

>  <initial_energy>  (1) 
-952168.2874265965 kilocalorie / mole

>  <final_energy>  (1) 
-952214.6809465727 kilocalorie / mole

$$$$
