JNS-00617-03
     RDKit          3D

 44 48  0  0  0  0  0  0  0  0999 V2000
   -2.8161   -5.1363    0.1587 F   0  0  0  0  0  0  0  0  0  0  0  0
   -1.6722   -4.4041    0.2103 C   0  0  0  0  0  0  0  0  0  0  0  0
   -1.1052   -4.6427    1.4184 F   0  0  0  0  0  0  0  0  0  0  0  0
   -0.8366   -4.9073   -0.7262 F   0  0  0  0  0  0  0  0  0  0  0  0
   -1.9402   -2.9252   -0.0013 C   0  0  0  0  0  0  0  0  0  0  0  0
   -0.8603   -2.1658    0.0165 N   0  0  0  0  0  0  0  0  0  0  0  0
   -1.0833   -0.8439   -0.1528 C   0  0  0  0  0  0  0  0  0  0  0  0
   -0.1744    0.2384   -0.1924 C   0  0  0  0  0  0  0  0  0  0  0  0
   -0.9592    1.3381   -0.3832 N   0  0  0  0  0  0  0  0  0  0  0  0
   -0.5708    2.7473   -0.2923 C   0  0  0  0  0  0  0  0  0  0  0  0
   -0.9705    3.3529    1.0526 C   0  0  0  0  0  0  0  0  0  0  0  0
   -0.3038    4.7435    1.2766 C   0  0  0  0  0  0  0  0  0  0  0  0
    0.7685    4.0581    2.1716 C   0  0  0  0  0  0  0  0  0  0  0  0
   -0.1502    2.8063    2.2585 C   0  0  0  0  0  0  0  0  0  0  0  0
   -2.2910    1.0815   -0.4795 N   0  0  0  0  0  0  0  0  0  0  0  0
   -2.3777   -0.2559   -0.3465 C   0  0  0  0  0  0  0  0  0  0  0  0
   -3.5080   -1.1051   -0.3691 C   0  0  0  0  0  0  0  0  0  0  0  0
   -3.2743   -2.4543   -0.1900 C   0  0  0  0  0  0  0  0  0  0  0  0
    1.2877    0.2246   -0.0690 C   0  0  0  0  0  0  0  0  0  0  0  0
    1.8625   -0.5793    0.9444 C   0  0  0  0  0  0  0  0  0  0  0  0
    3.2442   -0.6588    1.1215 C   0  0  0  0  0  0  0  0  0  0  0  0
    4.0367    0.0906    0.2549 C   0  0  0  0  0  0  0  0  0  0  0  0
    5.4180    0.2535    0.1272 N   0  0  0  0  0  0  0  0  0  0  0  0
    5.6084    1.1111   -0.9472 C   0  0  0  0  0  0  0  0  0  0  0  0
    6.8334    1.4972   -1.3608 O   0  0  0  0  0  0  0  0  0  0  0  0
    4.5045    1.5127   -1.5095 N   0  0  0  0  0  0  0  0  0  0  0  0
    3.4898    0.8912   -0.7790 C   0  0  0  0  0  0  0  0  0  0  0  0
    2.1063    0.9505   -0.9501 C   0  0  0  0  0  0  0  0  0  0  0  0
   -1.0655    3.2740   -1.1124 H   0  0  0  0  0  0  0  0  0  0  0  0
    0.5063    2.8145   -0.4353 H   0  0  0  0  0  0  0  0  0  0  0  0
   -2.0575    3.3101    1.1524 H   0  0  0  0  0  0  0  0  0  0  0  0
   -0.9526    5.4151    1.8458 H   0  0  0  0  0  0  0  0  0  0  0  0
    0.0472    5.2748    0.3854 H   0  0  0  0  0  0  0  0  0  0  0  0
    1.0225    4.5562    3.1111 H   0  0  0  0  0  0  0  0  0  0  0  0
    1.6953    3.8533    1.6276 H   0  0  0  0  0  0  0  0  0  0  0  0
    0.3222    1.8275    2.1395 H   0  0  0  0  0  0  0  0  0  0  0  0
   -0.7474    2.7940    3.1746 H   0  0  0  0  0  0  0  0  0  0  0  0
   -4.5097   -0.7115   -0.5158 H   0  0  0  0  0  0  0  0  0  0  0  0
   -4.0933   -3.1643   -0.1905 H   0  0  0  0  0  0  0  0  0  0  0  0
    1.2076   -1.1534    1.5904 H   0  0  0  0  0  0  0  0  0  0  0  0
    3.6682   -1.2844    1.9021 H   0  0  0  0  0  0  0  0  0  0  0  0
    6.1266   -0.1934    0.6938 H   0  0  0  0  0  0  0  0  0  0  0  0
    7.5261    1.0706   -0.8329 H   0  0  0  0  0  0  0  0  0  0  0  0
    1.6894    1.5179   -1.7763 H   0  0  0  0  0  0  0  0  0  0  0  0
  1  2  1  0
  2  3  1  0
  2  4  1  0
  2  5  1  0
  5  6  2  0
  5 18  1  0
  6  7  1  0
  7  8  2  0
  7 16  1  0
  8  9  1  0
  8 19  1  0
  9 10  1  0
  9 15  1  0
 10 11  1  0
 10 29  1  0
 10 30  1  0
 11 12  1  0
 11 14  1  0
 11 31  1  0
 12 13  1  0
 12 32  1  0
 12 33  1  0
 13 14  1  0
 13 34  1  0
 13 35  1  0
 14 36  1  0
 14 37  1  0
 15 16  2  0
 16 17  1  0
 17 18  2  0
 17 38  1  0
 18 39  1  0
 19 20  2  0
 19 28  1  0
 20 21  1  0
 20 40  1  0
 21 22  2  0
 21 41  1  0
 22 23  1  0
 22 27  1  0
 23 24  1  0
 23 42  1  0
 24 25  1  0
 24 26  2  0
 25 43  1  0
 26 27  1  0
 27 28  2  0
 28 44  1  0
M  END
>  <group_name>  (1) 
JNS

>  <molecule_index>  (1) 
00617

>  <conformer_index>  (1) 
03

>  <method>  (1) 
b3lyp-d3bj

>  <basis>  (1) 
dzvp

>  <program>  (1) 
psi4

>  <initial_energy>  (1) 
-867468.7564297521 kilocalorie / mole

>  <final_energy>  (1) 
-867476.1489556661 kilocalorie / mole

$$$$
