JNS-02157-01
     RDKit          3D

 42 45  0  0  0  0  0  0  0  0999 V2000
    1.7273    2.3183    2.4618 C   0  0  0  0  0  0  0  0  0  0  0  0
    0.7528    3.2126    1.6952 C   0  0  2  0  0  0  0  0  0  0  0  0
   -0.7038    3.0456    2.1866 C   0  0  0  0  0  0  0  0  0  0  0  0
   -1.5634    3.9357    1.3472 C   0  0  0  0  0  0  0  0  0  0  0  0
   -1.1456    4.5715    0.2036 C   0  0  0  0  0  0  0  0  0  0  0  0
    0.2128    4.3747   -0.4049 C   0  0  0  0  0  0  0  0  0  0  0  0
    0.8006    3.1691    0.2102 N   0  0  0  0  0  0  0  0  0  0  0  0
    0.9591    2.0830   -0.6074 C   0  0  0  0  0  0  0  0  0  0  0  0
    0.8440    2.1291   -1.8309 O   0  0  0  0  0  0  0  0  0  0  0  0
    1.2459    0.7351    0.0058 C   0  0  0  0  0  0  0  0  0  0  0  0
    0.1745   -0.0798    0.3768 C   0  0  0  0  0  0  0  0  0  0  0  0
    0.4360   -1.3605    0.8602 C   0  0  0  0  0  0  0  0  0  0  0  0
    1.6742   -1.8477    0.9894 N   0  0  0  0  0  0  0  0  0  0  0  0
    2.7021   -1.0852    0.6177 C   0  0  0  0  0  0  0  0  0  0  0  0
    2.5389    0.2121    0.1045 C   0  0  0  0  0  0  0  0  0  0  0  0
    3.8941    1.1981   -0.3760 Cl  0  0  0  0  0  0  0  0  0  0  0  0
    4.0850   -1.7079    0.8067 C   0  0  0  0  0  0  0  0  0  0  0  0
    4.7607   -1.7761   -0.3648 F   0  0  0  0  0  0  0  0  0  0  0  0
    4.8349   -0.9682    1.6652 F   0  0  0  0  0  0  0  0  0  0  0  0
    4.0098   -2.9484    1.3052 F   0  0  0  0  0  0  0  0  0  0  0  0
   -2.1617    5.3564   -0.2774 N   0  0  0  0  0  0  0  0  0  0  0  0
   -3.1943    5.2498    0.5018 N   0  0  0  0  0  0  0  0  0  0  0  0
   -2.8530    4.3773    1.5153 N   0  0  0  0  0  0  0  0  0  0  0  0
   -3.7911    4.0140    2.5049 C   0  0  0  0  0  0  0  0  0  0  0  0
   -4.8685    4.7897    2.6351 N   0  0  0  0  0  0  0  0  0  0  0  0
   -5.7543    4.4173    3.5606 C   0  0  0  0  0  0  0  0  0  0  0  0
   -5.5346    3.2897    4.3490 C   0  0  0  0  0  0  0  0  0  0  0  0
   -6.4275    2.9200    5.2877 F   0  0  0  0  0  0  0  0  0  0  0  0
   -4.3707    2.5568    4.1501 C   0  0  0  0  0  0  0  0  0  0  0  0
   -3.4901    2.9182    3.2103 N   0  0  0  0  0  0  0  0  0  0  0  0
    2.7326    2.3696    2.0386 H   0  0  0  0  0  0  0  0  0  0  0  0
    1.7798    2.6886    3.4905 H   0  0  0  0  0  0  0  0  0  0  0  0
    1.4125    1.2758    2.5080 H   0  0  0  0  0  0  0  0  0  0  0  0
    1.0474    4.2434    1.9223 H   0  0  0  0  0  0  0  0  0  0  0  0
   -0.7687    3.3139    3.2453 H   0  0  0  0  0  0  0  0  0  0  0  0
   -1.0222    2.0008    2.1144 H   0  0  0  0  0  0  0  0  0  0  0  0
    0.1482    4.2203   -1.4811 H   0  0  0  0  0  0  0  0  0  0  0  0
    0.8683    5.2342   -0.2204 H   0  0  0  0  0  0  0  0  0  0  0  0
   -0.8462    0.2793    0.2821 H   0  0  0  0  0  0  0  0  0  0  0  0
   -0.3747   -2.0211    1.1595 H   0  0  0  0  0  0  0  0  0  0  0  0
   -6.6477    5.0263    3.6862 H   0  0  0  0  0  0  0  0  0  0  0  0
   -4.1513    1.6728    4.7454 H   0  0  0  0  0  0  0  0  0  0  0  0
  1  2  1  0
  1 31  1  0
  1 32  1  0
  1 33  1  0
  2  3  1  0
  2  7  1  0
  2 34  1  1
  3  4  1  0
  3 35  1  0
  3 36  1  0
  4  5  2  0
  4 23  1  0
  5  6  1  0
  5 21  1  0
  6  7  1  0
  6 37  1  0
  6 38  1  0
  7  8  1  0
  8  9  2  0
  8 10  1  0
 10 11  2  0
 10 15  1  0
 11 12  1  0
 11 39  1  0
 12 13  2  0
 12 40  1  0
 13 14  1  0
 14 15  2  0
 14 17  1  0
 15 16  1  0
 17 18  1  0
 17 19  1  0
 17 20  1  0
 21 22  2  0
 22 23  1  0
 23 24  1  0
 24 25  2  0
 24 30  1  0
 25 26  1  0
 26 27  2  0
 26 41  1  0
 27 28  1  0
 27 29  1  0
 29 30  2  0
 29 42  1  0
M  END
>  <group_name>  (1) 
JNS

>  <molecule_index>  (1) 
02157

>  <conformer_index>  (1) 
01

>  <method>  (1) 
b3lyp-d3bj

>  <basis>  (1) 
dzvp

>  <program>  (1) 
psi4

>  <initial_energy>  (1) 
-1238223.969077839 kilocalorie / mole

>  <final_energy>  (1) 
-1238271.2666121253 kilocalorie / mole

$$$$
