JNS-01972-01
     RDKit          3D

 38 40  0  0  0  0  0  0  0  0999 V2000
   -0.4796    0.5983   -1.1954 F   0  0  0  0  0  0  0  0  0  0  0  0
    0.0689   -0.1629   -0.1990 C   0  0  0  0  0  0  0  0  0  0  0  0
   -0.2193   -1.4432   -0.4904 F   0  0  0  0  0  0  0  0  0  0  0  0
   -0.6046    0.1499    0.9381 F   0  0  0  0  0  0  0  0  0  0  0  0
    1.5620    0.0738   -0.0632 C   0  0  0  0  0  0  0  0  0  0  0  0
    2.3288   -0.8626   -0.6294 N   0  0  0  0  0  0  0  0  0  0  0  0
    3.6501   -0.7775   -0.5387 C   0  0  0  0  0  0  0  0  0  0  0  0
    4.3196    0.2690    0.1481 C   0  0  0  0  0  0  0  0  0  0  0  0
    3.4917    1.2566    0.7212 C   0  0  0  0  0  0  0  0  0  0  0  0
    2.0998    1.1837    0.6200 C   0  0  0  0  0  0  0  0  0  0  0  0
    1.2958    2.2850    1.2197 C   0  0  0  0  0  0  0  0  0  0  0  0
    0.4584    3.0894    0.4321 C   0  0  0  0  0  0  0  0  0  0  0  0
   -0.2491    4.1480    1.0062 C   0  0  0  0  0  0  0  0  0  0  0  0
   -0.1314    4.4169    2.3737 C   0  0  0  0  0  0  0  0  0  0  0  0
    0.7040    3.6216    3.1649 C   0  0  0  0  0  0  0  0  0  0  0  0
    1.4162    2.5663    2.5898 C   0  0  0  0  0  0  0  0  0  0  0  0
    5.6903    0.3166    0.2402 N   0  0  0  0  0  0  0  0  0  0  0  0
    6.5444   -0.5168   -0.6070 C   0  0  0  0  0  0  0  0  0  0  0  0
    7.8992    0.1745   -0.7961 C   0  0  0  0  0  0  0  0  0  0  0  0
    8.6028    0.4716    0.4621 N   0  0  0  0  0  0  0  0  0  0  0  0
    7.6995    0.6108    1.6155 C   0  0  0  0  0  0  0  0  0  0  0  0
    6.3607    1.2074    1.1882 C   0  0  0  0  0  0  0  0  0  0  0  0
    4.2085   -1.5831   -1.0073 H   0  0  0  0  0  0  0  0  0  0  0  0
    3.9222    2.1229    1.2106 H   0  0  0  0  0  0  0  0  0  0  0  0
    0.3644    2.8887   -0.6302 H   0  0  0  0  0  0  0  0  0  0  0  0
   -0.8924    4.7641    0.3834 H   0  0  0  0  0  0  0  0  0  0  0  0
   -0.6866    5.2383    2.8193 H   0  0  0  0  0  0  0  0  0  0  0  0
    0.7969    3.8189    4.2298 H   0  0  0  0  0  0  0  0  0  0  0  0
    2.0536    1.9396    3.2085 H   0  0  0  0  0  0  0  0  0  0  0  0
    6.0742   -0.6363   -1.5883 H   0  0  0  0  0  0  0  0  0  0  0  0
    6.6781   -1.5227   -0.1793 H   0  0  0  0  0  0  0  0  0  0  0  0
    7.7298    1.1093   -1.3444 H   0  0  0  0  0  0  0  0  0  0  0  0
    8.5386   -0.4502   -1.4265 H   0  0  0  0  0  0  0  0  0  0  0  0
    9.2873   -0.2525    0.6566 H   0  0  0  0  0  0  0  0  0  0  0  0
    8.1572    1.2734    2.3585 H   0  0  0  0  0  0  0  0  0  0  0  0
    7.4937   -0.3503    2.1137 H   0  0  0  0  0  0  0  0  0  0  0  0
    5.7368    1.3163    2.0797 H   0  0  0  0  0  0  0  0  0  0  0  0
    6.5125    2.2114    0.7646 H   0  0  0  0  0  0  0  0  0  0  0  0
  1  2  1  0
  2  3  1  0
  2  4  1  0
  2  5  1  0
  5  6  2  0
  5 10  1  0
  6  7  1  0
  7  8  2  0
  7 23  1  0
  8  9  1  0
  8 17  1  0
  9 10  2  0
  9 24  1  0
 10 11  1  0
 11 12  2  0
 11 16  1  0
 12 13  1  0
 12 25  1  0
 13 14  2  0
 13 26  1  0
 14 15  1  0
 14 27  1  0
 15 16  2  0
 15 28  1  0
 16 29  1  0
 17 18  1  0
 17 22  1  0
 18 19  1  0
 18 30  1  0
 18 31  1  0
 19 20  1  0
 19 32  1  0
 19 33  1  0
 20 21  1  0
 20 34  1  0
 21 22  1  0
 21 35  1  0
 21 36  1  0
 22 37  1  0
 22 38  1  0
M  END
>  <group_name>  (1) 
JNS

>  <molecule_index>  (1) 
01972

>  <conformer_index>  (1) 
01

>  <method>  (1) 
b3lyp-d3bj

>  <basis>  (1) 
dzvp

>  <program>  (1) 
psi4

>  <initial_energy>  (1) 
-679772.2495328996 kilocalorie / mole

>  <final_energy>  (1) 
-679797.3280900662 kilocalorie / mole

$$$$
