JNS-01614-07
     RDKit          3D

 39 42  0  0  0  0  0  0  0  0999 V2000
   -0.4705    1.0605    1.1989 C   0  0  0  0  0  0  0  0  0  0  0  0
   -0.0312    0.1691    0.0330 C   0  0  0  0  0  0  0  0  0  0  0  0
    1.4559    0.1479   -0.1515 C   0  0  0  0  0  0  0  0  0  0  0  0
    2.2907    1.0416    0.3443 N   0  0  0  0  0  0  0  0  0  0  0  0
    3.5534    0.6264   -0.0440 C   0  0  0  0  0  0  0  0  0  0  0  0
    3.4611   -0.5713   -0.8031 C   0  0  0  0  0  0  0  0  0  0  0  0
    4.4614   -1.2609   -1.3271 N   0  0  0  0  0  0  0  0  0  0  0  0
    5.6724   -0.7317   -1.0939 C   0  0  0  0  0  0  0  0  0  0  0  0
    5.9060    0.4458   -0.3652 C   0  0  0  0  0  0  0  0  0  0  0  0
    4.8256    1.1515    0.1787 C   0  0  0  0  0  0  0  0  0  0  0  0
    6.8198   -1.5226   -1.6876 C   0  0  0  0  0  0  0  0  0  0  0  0
    6.7189   -1.6271   -3.0332 F   0  0  0  0  0  0  0  0  0  0  0  0
    8.0202   -0.9472   -1.4204 F   0  0  0  0  0  0  0  0  0  0  0  0
    6.8662   -2.7846   -1.1946 F   0  0  0  0  0  0  0  0  0  0  0  0
    2.1025   -0.8595   -0.8692 N   0  0  0  0  0  0  0  0  0  0  0  0
    1.5212   -1.9920   -1.5177 C   0  0  0  0  0  0  0  0  0  0  0  0
    0.5942   -1.8107   -2.5310 C   0  0  0  0  0  0  0  0  0  0  0  0
    0.0408   -2.9627   -3.1224 C   0  0  0  0  0  0  0  0  0  0  0  0
    0.4625   -4.2454   -2.6891 C   0  0  0  0  0  0  0  0  0  0  0  0
   -0.2376   -5.1422   -3.4534 N   0  0  0  0  0  0  0  0  0  0  0  0
   -1.0709   -4.5326   -4.3428 N   0  0  0  0  0  0  0  0  0  0  0  0
   -0.9143   -3.2303   -4.1554 C   0  0  0  0  0  0  0  0  0  0  0  0
    1.4222   -4.4400   -1.6733 C   0  0  0  0  0  0  0  0  0  0  0  0
    1.8561   -5.8217   -1.2581 C   0  0  0  0  0  0  0  0  0  0  0  0
    1.9303   -3.2846   -1.0984 C   0  0  0  0  0  0  0  0  0  0  0  0
   -0.0464    0.7075    2.1429 H   0  0  0  0  0  0  0  0  0  0  0  0
   -0.1367    2.0898    1.0517 H   0  0  0  0  0  0  0  0  0  0  0  0
   -1.5614    1.0524    1.2829 H   0  0  0  0  0  0  0  0  0  0  0  0
   -0.4996    0.5171   -0.8963 H   0  0  0  0  0  0  0  0  0  0  0  0
   -0.3830   -0.8592    0.1721 H   0  0  0  0  0  0  0  0  0  0  0  0
    6.9213    0.7983   -0.2275 H   0  0  0  0  0  0  0  0  0  0  0  0
    4.9709    2.0641    0.7494 H   0  0  0  0  0  0  0  0  0  0  0  0
    0.3189   -0.8138   -2.8609 H   0  0  0  0  0  0  0  0  0  0  0  0
   -0.1950   -6.1514   -3.4394 H   0  0  0  0  0  0  0  0  0  0  0  0
   -1.4802   -2.5296   -4.7567 H   0  0  0  0  0  0  0  0  0  0  0  0
    1.0066   -6.4167   -0.9008 H   0  0  0  0  0  0  0  0  0  0  0  0
    2.5959   -5.7782   -0.4557 H   0  0  0  0  0  0  0  0  0  0  0  0
    2.3082   -6.3625   -2.0983 H   0  0  0  0  0  0  0  0  0  0  0  0
    2.6761   -3.3585   -0.3130 H   0  0  0  0  0  0  0  0  0  0  0  0
  1  2  1  0
  1 26  1  0
  1 27  1  0
  1 28  1  0
  2  3  1  0
  2 29  1  0
  2 30  1  0
  3  4  2  0
  3 15  1  0
  4  5  1  0
  5  6  2  0
  5 10  1  0
  6  7  1  0
  6 15  1  0
  7  8  2  0
  8  9  1  0
  8 11  1  0
  9 10  2  0
  9 31  1  0
 10 32  1  0
 11 12  1  0
 11 13  1  0
 11 14  1  0
 15 16  1  0
 16 17  2  0
 16 25  1  0
 17 18  1  0
 17 33  1  0
 18 19  2  0
 18 22  1  0
 19 20  1  0
 19 23  1  0
 20 21  1  0
 20 34  1  0
 21 22  2  0
 22 35  1  0
 23 24  1  0
 23 25  2  0
 24 36  1  0
 24 37  1  0
 24 38  1  0
 25 39  1  0
M  END
>  <group_name>  (1) 
JNS

>  <molecule_index>  (1) 
01614

>  <conformer_index>  (1) 
07

>  <method>  (1) 
b3lyp-d3bj

>  <basis>  (1) 
dzvp

>  <program>  (1) 
psi4

>  <initial_energy>  (1) 
-771657.2733111624 kilocalorie / mole

>  <final_energy>  (1) 
-771705.3614534478 kilocalorie / mole

$$$$
