JNS-01792-02
     RDKit          3D

 40 44  0  0  0  0  0  0  0  0999 V2000
   -0.2668   -1.5721   -0.7432 F   0  0  0  0  0  0  0  0  0  0  0  0
    0.0837   -0.2796   -0.5299 C   0  0  0  0  0  0  0  0  0  0  0  0
   -0.3544    0.4324   -1.6003 F   0  0  0  0  0  0  0  0  0  0  0  0
   -0.6189    0.1472    0.5458 F   0  0  0  0  0  0  0  0  0  0  0  0
    1.5769   -0.1286   -0.3282 C   0  0  0  0  0  0  0  0  0  0  0  0
    2.0627   -0.8143    0.7130 N   0  0  0  0  0  0  0  0  0  0  0  0
    3.3706   -0.6992    0.8987 C   0  0  0  0  0  0  0  0  0  0  0  0
    4.2768    0.0709    0.1044 C   0  0  0  0  0  0  0  0  0  0  0  0
    5.5796   -0.1105    0.6736 C   0  0  0  0  0  0  0  0  0  0  0  0
    5.4477   -0.9530    1.7572 C   0  0  0  0  0  0  0  0  0  0  0  0
    6.4883   -1.4976    2.6568 C   0  0  0  0  0  0  0  0  0  0  0  0
    6.9012   -2.9539    2.5270 C   0  0  0  0  0  0  0  0  0  0  0  0
    7.8498   -1.8560    2.1034 C   0  0  0  0  0  0  0  0  0  0  0  0
    4.1003   -1.3124    1.9060 N   0  0  0  0  0  0  0  0  0  0  0  0
    3.5607   -2.1926    2.8890 C   0  0  0  0  0  0  0  0  0  0  0  0
    3.6953   -1.8855    4.2530 C   0  0  0  0  0  0  0  0  0  0  0  0
    3.1726   -2.7601    5.1925 C   0  0  0  0  0  0  0  0  0  0  0  0
    2.4977   -3.9209    4.7701 C   0  0  0  0  0  0  0  0  0  0  0  0
    2.0535   -4.6287    5.8966 N   0  0  0  0  0  0  0  0  0  0  0  0
    2.3904   -3.9982    7.0877 C   0  0  0  0  0  0  0  0  0  0  0  0
    2.1236   -4.4031    8.2059 O   0  0  0  0  0  0  0  0  0  0  0  0
    3.1502   -2.7183    6.7001 C   0  0  0  0  0  0  0  0  0  0  0  0
    2.3380   -4.2269    3.4221 C   0  0  0  0  0  0  0  0  0  0  0  0
    2.8863   -3.3470    2.4813 C   0  0  0  0  0  0  0  0  0  0  0  0
    3.7249    0.7754   -0.9721 C   0  0  0  0  0  0  0  0  0  0  0  0
    2.3490    0.6696   -1.1892 C   0  0  0  0  0  0  0  0  0  0  0  0
    6.5131    0.3161    0.3310 H   0  0  0  0  0  0  0  0  0  0  0  0
    6.4804   -1.1097    3.6726 H   0  0  0  0  0  0  0  0  0  0  0  0
    7.1075   -3.5008    3.4417 H   0  0  0  0  0  0  0  0  0  0  0  0
    6.4222   -3.5361    1.7460 H   0  0  0  0  0  0  0  0  0  0  0  0
    8.0144   -1.7174    1.0397 H   0  0  0  0  0  0  0  0  0  0  0  0
    8.7140   -1.6510    2.7276 H   0  0  0  0  0  0  0  0  0  0  0  0
    4.1882   -0.9658    4.5549 H   0  0  0  0  0  0  0  0  0  0  0  0
    1.5279   -5.4940    5.8799 H   0  0  0  0  0  0  0  0  0  0  0  0
    4.1446   -2.7374    7.1571 H   0  0  0  0  0  0  0  0  0  0  0  0
    2.6208   -1.8504    7.1062 H   0  0  0  0  0  0  0  0  0  0  0  0
    1.8058   -5.1173    3.0994 H   0  0  0  0  0  0  0  0  0  0  0  0
    2.7784   -3.5503    1.4213 H   0  0  0  0  0  0  0  0  0  0  0  0
    4.3424    1.3868   -1.6248 H   0  0  0  0  0  0  0  0  0  0  0  0
    1.8735    1.1926   -2.0106 H   0  0  0  0  0  0  0  0  0  0  0  0
  1  2  1  0
  2  3  1  0
  2  4  1  0
  2  5  1  0
  5  6  2  0
  5 26  1  0
  6  7  1  0
  7  8  2  0
  7 14  1  0
  8  9  1  0
  8 25  1  0
  9 10  2  0
  9 27  1  0
 10 11  1  0
 10 14  1  0
 11 12  1  0
 11 13  1  0
 11 28  1  0
 12 13  1  0
 12 29  1  0
 12 30  1  0
 13 31  1  0
 13 32  1  0
 14 15  1  0
 15 16  2  0
 15 24  1  0
 16 17  1  0
 16 33  1  0
 17 18  2  0
 17 22  1  0
 18 19  1  0
 18 23  1  0
 19 20  1  0
 19 34  1  0
 20 21  2  0
 20 22  1  0
 22 35  1  0
 22 36  1  0
 23 24  2  0
 23 37  1  0
 24 38  1  0
 25 26  2  0
 25 39  1  0
 26 40  1  0
M  END
>  <group_name>  (1) 
JNS

>  <molecule_index>  (1) 
01792

>  <conformer_index>  (1) 
02

>  <method>  (1) 
b3lyp-d3bj

>  <basis>  (1) 
dzvp

>  <program>  (1) 
psi4

>  <initial_energy>  (1) 
-797978.4893610623 kilocalorie / mole

>  <final_energy>  (1) 
-798015.0975312439 kilocalorie / mole

$$$$
