JNS-01364-05
     RDKit          3D

 34 37  0  0  0  0  0  0  0  0999 V2000
    0.2389   -2.2825    2.3608 F   0  0  0  0  0  0  0  0  0  0  0  0
   -0.5060   -2.4633    1.2427 C   0  0  0  0  0  0  0  0  0  0  0  0
    0.2610   -3.1522    0.3592 F   0  0  0  0  0  0  0  0  0  0  0  0
   -1.5581   -3.2236    1.5565 F   0  0  0  0  0  0  0  0  0  0  0  0
   -0.9457   -1.1364    0.6684 C   0  0  0  0  0  0  0  0  0  0  0  0
   -2.1851   -0.8797    0.3248 N   0  0  0  0  0  0  0  0  0  0  0  0
   -2.1599    0.4299   -0.1256 C   0  0  0  0  0  0  0  0  0  0  0  0
   -0.8442    0.9519   -0.0332 C   0  0  0  0  0  0  0  0  0  0  0  0
   -0.4456    2.1719   -0.3599 N   0  0  0  0  0  0  0  0  0  0  0  0
   -1.4251    2.9550   -0.8273 C   0  0  0  0  0  0  0  0  0  0  0  0
   -2.7691    2.5634   -0.9774 C   0  0  0  0  0  0  0  0  0  0  0  0
   -3.1594    1.2705   -0.6204 C   0  0  0  0  0  0  0  0  0  0  0  0
   -0.9775    4.3590   -1.1937 C   0  0  0  0  0  0  0  0  0  0  0  0
   -0.4741    5.0110   -0.1199 F   0  0  0  0  0  0  0  0  0  0  0  0
   -2.0058    5.1029   -1.6705 F   0  0  0  0  0  0  0  0  0  0  0  0
   -0.0164    4.3440   -2.1425 F   0  0  0  0  0  0  0  0  0  0  0  0
   -0.0647   -0.0812    0.4773 N   0  0  0  0  0  0  0  0  0  0  0  0
    1.3423   -0.0040    0.7370 C   0  0  0  0  0  0  0  0  0  0  0  0
    2.2235   -0.7784    0.0005 C   0  0  0  0  0  0  0  0  0  0  0  0
    3.5902   -0.6575    0.3012 C   0  0  0  0  0  0  0  0  0  0  0  0
    4.0254    0.2427    1.3040 C   0  0  0  0  0  0  0  0  0  0  0  0
    5.3931    0.1245    1.3380 N   0  0  0  0  0  0  0  0  0  0  0  0
    5.8705   -0.7687    0.4460 N   0  0  0  0  0  0  0  0  0  0  0  0
    4.8017   -1.2516   -0.1893 C   0  0  0  0  0  0  0  0  0  0  0  0
    4.9184   -2.2331   -1.2179 C   0  0  0  0  0  0  0  0  0  0  0  0
    4.9430   -3.0329   -2.0645 N   0  0  0  0  0  0  0  0  0  0  0  0
    3.1270    1.0394    2.0339 C   0  0  0  0  0  0  0  0  0  0  0  0
    1.7820    0.8992    1.7371 C   0  0  0  0  0  0  0  0  0  0  0  0
   -3.4911    3.2708   -1.3675 H   0  0  0  0  0  0  0  0  0  0  0  0
   -4.1870    0.9343   -0.7200 H   0  0  0  0  0  0  0  0  0  0  0  0
    1.8710   -1.4497   -0.7754 H   0  0  0  0  0  0  0  0  0  0  0  0
    6.0522    0.6144    1.9291 H   0  0  0  0  0  0  0  0  0  0  0  0
    3.4629    1.7342    2.7976 H   0  0  0  0  0  0  0  0  0  0  0  0
    1.0425    1.4890    2.2684 H   0  0  0  0  0  0  0  0  0  0  0  0
  1  2  1  0
  2  3  1  0
  2  4  1  0
  2  5  1  0
  5  6  2  0
  5 17  1  0
  6  7  1  0
  7  8  2  0
  7 12  1  0
  8  9  1  0
  8 17  1  0
  9 10  2  0
 10 11  1  0
 10 13  1  0
 11 12  2  0
 11 29  1  0
 12 30  1  0
 13 14  1  0
 13 15  1  0
 13 16  1  0
 17 18  1  0
 18 19  2  0
 18 28  1  0
 19 20  1  0
 19 31  1  0
 20 21  2  0
 20 24  1  0
 21 22  1  0
 21 27  1  0
 22 23  1  0
 22 32  1  0
 23 24  2  0
 24 25  1  0
 25 26  3  0
 27 28  2  0
 27 33  1  0
 28 34  1  0
M  END
>  <group_name>  (1) 
JNS

>  <molecule_index>  (1) 
01364

>  <conformer_index>  (1) 
05

>  <method>  (1) 
b3lyp-d3bj

>  <basis>  (1) 
dzvp

>  <program>  (1) 
psi4

>  <initial_energy>  (1) 
-967055.845944914 kilocalorie / mole

>  <final_energy>  (1) 
-967102.136029809 kilocalorie / mole

$$$$
