JNS-01356-03
     RDKit          3D

 33 36  0  0  0  0  0  0  0  0999 V2000
   -1.5478   -3.5015    0.3340 F   0  0  0  0  0  0  0  0  0  0  0  0
   -0.5119   -2.6780    0.5185 C   0  0  0  0  0  0  0  0  0  0  0  0
    0.4636   -3.0172   -0.3572 F   0  0  0  0  0  0  0  0  0  0  0  0
   -0.0239   -2.8948    1.7669 F   0  0  0  0  0  0  0  0  0  0  0  0
   -0.9286   -1.2364    0.3341 C   0  0  0  0  0  0  0  0  0  0  0  0
   -2.1845   -0.8608    0.2862 N   0  0  0  0  0  0  0  0  0  0  0  0
   -2.1342    0.5088    0.0888 C   0  0  0  0  0  0  0  0  0  0  0  0
   -0.7855    0.9417    0.0176 C   0  0  0  0  0  0  0  0  0  0  0  0
   -0.3556    2.1784   -0.1814 N   0  0  0  0  0  0  0  0  0  0  0  0
   -1.3363    3.0787   -0.3169 C   0  0  0  0  0  0  0  0  0  0  0  0
   -2.7126    2.7874   -0.2602 C   0  0  0  0  0  0  0  0  0  0  0  0
   -3.1353    1.4723   -0.0532 C   0  0  0  0  0  0  0  0  0  0  0  0
   -0.8493    4.4975   -0.5520 C   0  0  0  0  0  0  0  0  0  0  0  0
   -1.8831    5.3608   -0.7081 F   0  0  0  0  0  0  0  0  0  0  0  0
   -0.0861    4.5789   -1.6663 F   0  0  0  0  0  0  0  0  0  0  0  0
   -0.1030    4.9451    0.4815 F   0  0  0  0  0  0  0  0  0  0  0  0
   -0.0127   -0.2035    0.1877 N   0  0  0  0  0  0  0  0  0  0  0  0
    1.4184   -0.2401    0.1896 C   0  0  0  0  0  0  0  0  0  0  0  0
    2.0937    0.1728   -0.9671 C   0  0  0  0  0  0  0  0  0  0  0  0
    3.4702    0.1314   -0.8804 C   0  0  0  0  0  0  0  0  0  0  0  0
    4.1965   -0.2925    0.2476 C   0  0  0  0  0  0  0  0  0  0  0  0
    5.5644   -0.2126   -0.0208 N   0  0  0  0  0  0  0  0  0  0  0  0
    5.6074    0.2319   -1.2327 C   0  0  0  0  0  0  0  0  0  0  0  0
    6.6974    0.4786   -1.9514 O   0  0  0  0  0  0  0  0  0  0  0  0
    4.3996    0.4754   -1.8516 O   0  0  0  0  0  0  0  0  0  0  0  0
    3.4875   -0.6916    1.3827 C   0  0  0  0  0  0  0  0  0  0  0  0
    4.4008   -1.2670    2.9467 Br  0  0  0  0  0  0  0  0  0  0  0  0
    2.0918   -0.6496    1.3497 C   0  0  0  0  0  0  0  0  0  0  0  0
   -3.4335    3.5870   -0.3817 H   0  0  0  0  0  0  0  0  0  0  0  0
   -4.1877    1.2090   -0.0077 H   0  0  0  0  0  0  0  0  0  0  0  0
    1.5645    0.5046   -1.8526 H   0  0  0  0  0  0  0  0  0  0  0  0
    6.4352    0.8176   -2.8251 H   0  0  0  0  0  0  0  0  0  0  0  0
    1.5230   -0.9353    2.2266 H   0  0  0  0  0  0  0  0  0  0  0  0
  1  2  1  0
  2  3  1  0
  2  4  1  0
  2  5  1  0
  5  6  2  0
  5 17  1  0
  6  7  1  0
  7  8  2  0
  7 12  1  0
  8  9  1  0
  8 17  1  0
  9 10  2  0
 10 11  1  0
 10 13  1  0
 11 12  2  0
 11 29  1  0
 12 30  1  0
 13 14  1  0
 13 15  1  0
 13 16  1  0
 17 18  1  0
 18 19  2  0
 18 28  1  0
 19 20  1  0
 19 31  1  0
 20 21  2  0
 20 25  1  0
 21 22  1  0
 21 26  1  0
 22 23  2  0
 23 24  1  0
 23 25  1  0
 24 32  1  0
 26 27  1  0
 26 28  2  0
 28 33  1  0
M  END
>  <group_name>  (1) 
JNS

>  <molecule_index>  (1) 
01356

>  <conformer_index>  (1) 
03

>  <method>  (1) 
b3lyp-d3bj

>  <basis>  (1) 
dzvp

>  <program>  (1) 
psi4

>  <initial_energy>  (1) 
-2583474.6692964034 kilocalorie / mole

>  <final_energy>  (1) 
-2583542.304727025 kilocalorie / mole

$$$$
