JNS-01581-02
     RDKit          3D

 40 44  0  0  0  0  0  0  0  0999 V2000
   -0.7146    0.0967    1.0105 F   0  0  0  0  0  0  0  0  0  0  0  0
   -0.0778   -0.4516   -0.0507 C   0  0  0  0  0  0  0  0  0  0  0  0
   -0.3027   -1.7864   -0.0029 F   0  0  0  0  0  0  0  0  0  0  0  0
   -0.6890    0.0165   -1.1689 F   0  0  0  0  0  0  0  0  0  0  0  0
    1.4030   -0.1320   -0.0443 C   0  0  0  0  0  0  0  0  0  0  0  0
    2.0623   -0.6013    1.0266 N   0  0  0  0  0  0  0  0  0  0  0  0
    3.3542   -0.3198    1.0299 C   0  0  0  0  0  0  0  0  0  0  0  0
    4.0774    0.3977    0.0388 C   0  0  0  0  0  0  0  0  0  0  0  0
    3.3630    0.8742   -1.0594 C   0  0  0  0  0  0  0  0  0  0  0  0
    1.9907    0.5964   -1.0910 C   0  0  0  0  0  0  0  0  0  0  0  0
    5.4176    0.4709    0.3851 N   0  0  0  0  0  0  0  0  0  0  0  0
    5.5205   -0.1618    1.5381 C   0  0  0  0  0  0  0  0  0  0  0  0
    6.7894   -0.4010    2.2789 C   0  0  0  0  0  0  0  0  0  0  0  0
    7.2497   -1.8807    2.4949 C   0  0  0  0  0  0  0  0  0  0  0  0
    8.7003   -1.4238    2.1748 C   0  0  0  0  0  0  0  0  0  0  0  0
    8.1245   -0.1273    1.5382 C   0  0  0  0  0  0  0  0  0  0  0  0
    4.2982   -0.6627    1.9921 N   0  0  0  0  0  0  0  0  0  0  0  0
    4.0591   -1.4235    3.1744 C   0  0  0  0  0  0  0  0  0  0  0  0
    3.5561   -2.7119    3.0702 C   0  0  0  0  0  0  0  0  0  0  0  0
    3.3405   -3.4325    4.2580 C   0  0  0  0  0  0  0  0  0  0  0  0
    3.6480   -2.8450    5.5136 C   0  0  0  0  0  0  0  0  0  0  0  0
    3.3515   -3.7852    6.4577 N   0  0  0  0  0  0  0  0  0  0  0  0
    2.8693   -4.9341    5.9066 N   0  0  0  0  0  0  0  0  0  0  0  0
    2.8584   -4.7396    4.5971 C   0  0  0  0  0  0  0  0  0  0  0  0
    4.1468   -1.5369    5.5994 C   0  0  0  0  0  0  0  0  0  0  0  0
    4.4952   -0.8374    7.1668 Cl  0  0  0  0  0  0  0  0  0  0  0  0
    4.3355   -0.8248    4.4287 C   0  0  0  0  0  0  0  0  0  0  0  0
    3.8495    1.4323   -1.8539 H   0  0  0  0  0  0  0  0  0  0  0  0
    1.3777    0.9357   -1.9176 H   0  0  0  0  0  0  0  0  0  0  0  0
    6.7689    0.1197    3.2419 H   0  0  0  0  0  0  0  0  0  0  0  0
    7.0503   -2.3222    3.4742 H   0  0  0  0  0  0  0  0  0  0  0  0
    6.8454   -2.5390    1.7206 H   0  0  0  0  0  0  0  0  0  0  0  0
    9.2945   -2.0756    1.5293 H   0  0  0  0  0  0  0  0  0  0  0  0
    9.2705   -1.2172    3.0853 H   0  0  0  0  0  0  0  0  0  0  0  0
    8.6246    0.8184    1.7599 H   0  0  0  0  0  0  0  0  0  0  0  0
    7.9936   -0.2127    0.4577 H   0  0  0  0  0  0  0  0  0  0  0  0
    3.3356   -3.1372    2.0970 H   0  0  0  0  0  0  0  0  0  0  0  0
    3.4259   -3.7060    7.4628 H   0  0  0  0  0  0  0  0  0  0  0  0
    2.5102   -5.5246    3.9378 H   0  0  0  0  0  0  0  0  0  0  0  0
    4.6855    0.2009    4.4682 H   0  0  0  0  0  0  0  0  0  0  0  0
  1  2  1  0
  2  3  1  0
  2  4  1  0
  2  5  1  0
  5  6  2  0
  5 10  1  0
  6  7  1  0
  7  8  2  0
  7 17  1  0
  8  9  1  0
  8 11  1  0
  9 10  2  0
  9 28  1  0
 10 29  1  0
 11 12  2  0
 12 13  1  0
 12 17  1  0
 13 14  1  0
 13 16  1  0
 13 30  1  0
 14 15  1  0
 14 31  1  0
 14 32  1  0
 15 16  1  0
 15 33  1  0
 15 34  1  0
 16 35  1  0
 16 36  1  0
 17 18  1  0
 18 19  2  0
 18 27  1  0
 19 20  1  0
 19 37  1  0
 20 21  2  0
 20 24  1  0
 21 22  1  0
 21 25  1  0
 22 23  1  0
 22 38  1  0
 23 24  2  0
 24 39  1  0
 25 26  1  0
 25 27  2  0
 27 40  1  0
M  END
>  <group_name>  (1) 
JNS

>  <molecule_index>  (1) 
01581

>  <conformer_index>  (1) 
02

>  <method>  (1) 
b3lyp-d3bj

>  <basis>  (1) 
dzvp

>  <program>  (1) 
psi4

>  <initial_energy>  (1) 
-1083929.760624867 kilocalorie / mole

>  <final_energy>  (1) 
-1083978.6569929507 kilocalorie / mole

$$$$
