JNS-01595-03
     RDKit          3D

 39 42  0  0  0  0  0  0  0  0999 V2000
   -0.6397   -1.2586    0.8173 C   0  0  0  0  0  0  0  0  0  0  0  0
   -0.1119   -0.2670   -0.2341 C   0  0  0  0  0  0  0  0  0  0  0  0
   -0.4769   -0.7207   -1.6613 C   0  0  0  0  0  0  0  0  0  0  0  0
    1.3772   -0.1120   -0.1040 C   0  0  0  0  0  0  0  0  0  0  0  0
    2.2307   -1.1179   -0.0738 N   0  0  0  0  0  0  0  0  0  0  0  0
    3.4823   -0.5425    0.0591 C   0  0  0  0  0  0  0  0  0  0  0  0
    3.3654    0.8729    0.1113 C   0  0  0  0  0  0  0  0  0  0  0  0
    4.3458    1.7511    0.2391 N   0  0  0  0  0  0  0  0  0  0  0  0
    5.5661    1.1992    0.3232 C   0  0  0  0  0  0  0  0  0  0  0  0
    5.8252   -0.1810    0.2846 C   0  0  0  0  0  0  0  0  0  0  0  0
    4.7645   -1.0845    0.1497 C   0  0  0  0  0  0  0  0  0  0  0  0
    6.6938    2.2012    0.4622 C   0  0  0  0  0  0  0  0  0  0  0  0
    6.7709    3.0220   -0.6127 F   0  0  0  0  0  0  0  0  0  0  0  0
    7.8994    1.5878    0.5821 F   0  0  0  0  0  0  0  0  0  0  0  0
    6.5366    2.9875    1.5522 F   0  0  0  0  0  0  0  0  0  0  0  0
    2.0023    1.1306   -0.0009 N   0  0  0  0  0  0  0  0  0  0  0  0
    1.4009    2.4257   -0.0015 C   0  0  0  0  0  0  0  0  0  0  0  0
    1.4639    3.2066    1.1427 C   0  0  0  0  0  0  0  0  0  0  0  0
    0.8777    4.4810    1.0939 C   0  0  0  0  0  0  0  0  0  0  0  0
    0.2428    4.9367   -0.0917 C   0  0  0  0  0  0  0  0  0  0  0  0
   -0.2251    6.1925    0.1938 N   0  0  0  0  0  0  0  0  0  0  0  0
    0.0638    6.5825    1.4700 N   0  0  0  0  0  0  0  0  0  0  0  0
    0.7153    5.5712    2.0075 C   0  0  0  0  0  0  0  0  0  0  0  0
    1.3263    5.6299    3.7918 Br  0  0  0  0  0  0  0  0  0  0  0  0
    0.1888    4.1447   -1.2517 C   0  0  0  0  0  0  0  0  0  0  0  0
    0.7832    2.8937   -1.1888 C   0  0  0  0  0  0  0  0  0  0  0  0
   -0.1813   -2.2411    0.6796 H   0  0  0  0  0  0  0  0  0  0  0  0
   -1.7258   -1.3602    0.7235 H   0  0  0  0  0  0  0  0  0  0  0  0
   -0.4130   -0.9172    1.8321 H   0  0  0  0  0  0  0  0  0  0  0  0
   -0.5691    0.7108   -0.0526 H   0  0  0  0  0  0  0  0  0  0  0  0
   -0.1246   -0.0080   -2.4140 H   0  0  0  0  0  0  0  0  0  0  0  0
   -0.0240   -1.6924   -1.8773 H   0  0  0  0  0  0  0  0  0  0  0  0
   -1.5634   -0.8114   -1.7613 H   0  0  0  0  0  0  0  0  0  0  0  0
    6.8461   -0.5360    0.3615 H   0  0  0  0  0  0  0  0  0  0  0  0
    4.9308   -2.1572    0.1179 H   0  0  0  0  0  0  0  0  0  0  0  0
    1.9568    2.8447    2.0392 H   0  0  0  0  0  0  0  0  0  0  0  0
   -0.7123    6.8403   -0.4098 H   0  0  0  0  0  0  0  0  0  0  0  0
   -0.2833    4.4951   -2.1648 H   0  0  0  0  0  0  0  0  0  0  0  0
    0.7897    2.2528   -2.0649 H   0  0  0  0  0  0  0  0  0  0  0  0
  1  2  1  0
  1 27  1  0
  1 28  1  0
  1 29  1  0
  2  3  1  0
  2  4  1  0
  2 30  1  0
  3 31  1  0
  3 32  1  0
  3 33  1  0
  4  5  2  0
  4 16  1  0
  5  6  1  0
  6  7  2  0
  6 11  1  0
  7  8  1  0
  7 16  1  0
  8  9  2  0
  9 10  1  0
  9 12  1  0
 10 11  2  0
 10 34  1  0
 11 35  1  0
 12 13  1  0
 12 14  1  0
 12 15  1  0
 16 17  1  0
 17 18  2  0
 17 26  1  0
 18 19  1  0
 18 36  1  0
 19 20  2  0
 19 23  1  0
 20 21  1  0
 20 25  1  0
 21 22  1  0
 21 37  1  0
 22 23  2  0
 23 24  1  0
 25 26  2  0
 25 38  1  0
 26 39  1  0
M  END
>  <group_name>  (1) 
JNS

>  <molecule_index>  (1) 
01595

>  <conformer_index>  (1) 
03

>  <method>  (1) 
b3lyp-d3bj

>  <basis>  (1) 
dzvp

>  <program>  (1) 
psi4

>  <initial_energy>  (1) 
-2386296.750360581 kilocalorie / mole

>  <final_energy>  (1) 
-2386339.7701530997 kilocalorie / mole

$$$$
