JNS-02466-02
     RDKit          3D

 53 56  0  0  0  0  0  0  0  0999 V2000
   -0.7989    0.9774    0.5354 C   0  0  0  0  0  0  0  0  0  0  0  0
    0.2401   -0.0663    0.0973 C   0  0  2  0  0  0  0  0  0  0  0  0
    1.5858    0.5322   -0.0180 N   0  0  0  0  0  0  0  0  0  0  0  0
    2.0749    1.2186    1.1798 C   0  0  0  0  0  0  0  0  0  0  0  0
    2.2913    0.2808    2.3938 C   0  0  0  0  0  0  0  0  0  0  0  0
    2.6248   -1.1620    1.9582 C   0  0  0  0  0  0  0  0  0  0  0  0
    3.3727   -1.2105    0.6079 C   0  0  2  0  0  0  0  0  0  0  0  0
    2.6303   -0.3799   -0.4984 C   0  0  0  0  0  0  0  0  0  0  0  0
    3.5999   -2.6376    0.1671 C   0  0  0  0  0  0  0  0  0  0  0  0
    4.8863   -3.1873    0.0990 C   0  0  0  0  0  0  0  0  0  0  0  0
    5.0186   -4.5119   -0.3154 C   0  0  0  0  0  0  0  0  0  0  0  0
    4.0013   -5.3052   -0.6533 N   0  0  0  0  0  0  0  0  0  0  0  0
    2.7615   -4.7901   -0.5887 C   0  0  0  0  0  0  0  0  0  0  0  0
    1.6281   -5.7097   -0.9662 C   0  0  0  0  0  0  0  0  0  0  0  0
    2.5278   -3.4679   -0.1872 C   0  0  0  0  0  0  0  0  0  0  0  0
    6.3844   -5.1657   -0.4195 C   0  0  0  0  0  0  0  0  0  0  0  0
    6.6510   -5.5724   -1.6826 F   0  0  0  0  0  0  0  0  0  0  0  0
    7.3804   -4.3134   -0.0581 F   0  0  0  0  0  0  0  0  0  0  0  0
    6.4831   -6.2520    0.3807 F   0  0  0  0  0  0  0  0  0  0  0  0
   -0.1628   -0.6784   -1.2345 C   0  0  0  0  0  0  0  0  0  0  0  0
   -0.4721   -1.9853   -1.2204 N   0  0  0  0  0  0  0  0  0  0  0  0
   -0.8289   -2.5772   -2.3516 C   0  0  0  0  0  0  0  0  0  0  0  0
   -0.9179   -1.8962   -3.5812 C   0  0  0  0  0  0  0  0  0  0  0  0
   -1.3052   -2.5124   -4.7479 O   0  0  0  0  0  0  0  0  0  0  0  0
   -1.9137   -3.7935   -4.5388 C   0  0  0  0  0  0  0  0  0  0  0  0
   -1.1177   -4.5929   -3.5218 C   0  0  0  0  0  0  0  0  0  0  0  0
   -1.1056   -3.9176   -2.2555 O   0  0  0  0  0  0  0  0  0  0  0  0
   -0.5806   -0.5442   -3.6003 C   0  0  0  0  0  0  0  0  0  0  0  0
   -0.1924    0.0751   -2.4128 C   0  0  0  0  0  0  0  0  0  0  0  0
   -0.6471    1.2897    1.5724 H   0  0  0  0  0  0  0  0  0  0  0  0
   -0.7550    1.8642   -0.1047 H   0  0  0  0  0  0  0  0  0  0  0  0
   -1.8015    0.5465    0.4638 H   0  0  0  0  0  0  0  0  0  0  0  0
    0.2007   -0.8932    0.8197 H   0  0  0  0  0  0  0  0  0  0  0  0
    1.4075    2.0427    1.4407 H   0  0  0  0  0  0  0  0  0  0  0  0
    3.0293    1.6792    0.8978 H   0  0  0  0  0  0  0  0  0  0  0  0
    1.3955    0.2636    3.0242 H   0  0  0  0  0  0  0  0  0  0  0  0
    3.0976    0.6864    3.0161 H   0  0  0  0  0  0  0  0  0  0  0  0
    3.2338   -1.6595    2.7200 H   0  0  0  0  0  0  0  0  0  0  0  0
    1.7083   -1.7518    1.8769 H   0  0  0  0  0  0  0  0  0  0  0  0
    4.3552   -0.7517    0.7694 H   0  0  0  0  0  0  0  0  0  0  0  0
    2.1969   -1.0492   -1.2400 H   0  0  0  0  0  0  0  0  0  0  0  0
    3.3791    0.2223   -1.0273 H   0  0  0  0  0  0  0  0  0  0  0  0
    5.7607   -2.5995    0.3572 H   0  0  0  0  0  0  0  0  0  0  0  0
    1.5562   -6.5300   -0.2437 H   0  0  0  0  0  0  0  0  0  0  0  0
    1.8253   -6.1623   -1.9434 H   0  0  0  0  0  0  0  0  0  0  0  0
    0.6734   -5.1815   -0.9988 H   0  0  0  0  0  0  0  0  0  0  0  0
    1.5061   -3.0976   -0.1698 H   0  0  0  0  0  0  0  0  0  0  0  0
   -1.9243   -4.2908   -5.5110 H   0  0  0  0  0  0  0  0  0  0  0  0
   -2.9448   -3.6566   -4.1895 H   0  0  0  0  0  0  0  0  0  0  0  0
   -1.5732   -5.5688   -3.3427 H   0  0  0  0  0  0  0  0  0  0  0  0
   -0.0870   -4.7341   -3.8694 H   0  0  0  0  0  0  0  0  0  0  0  0
   -0.6293   -0.0032   -4.5414 H   0  0  0  0  0  0  0  0  0  0  0  0
    0.1027    1.1188   -2.3941 H   0  0  0  0  0  0  0  0  0  0  0  0
  1  2  1  0
  1 30  1  0
  1 31  1  0
  1 32  1  0
  2  3  1  0
  2 20  1  0
  2 33  1  1
  3  4  1  0
  3  8  1  0
  4  5  1  0
  4 34  1  0
  4 35  1  0
  5  6  1  0
  5 36  1  0
  5 37  1  0
  6  7  1  0
  6 38  1  0
  6 39  1  0
  7  8  1  0
  7  9  1  0
  7 40  1  1
  8 41  1  0
  8 42  1  0
  9 10  2  0
  9 15  1  0
 10 11  1  0
 10 43  1  0
 11 12  2  0
 11 16  1  0
 12 13  1  0
 13 14  1  0
 13 15  2  0
 14 44  1  0
 14 45  1  0
 14 46  1  0
 15 47  1  0
 16 17  1  0
 16 18  1  0
 16 19  1  0
 20 21  2  0
 20 29  1  0
 21 22  1  0
 22 23  2  0
 22 27  1  0
 23 24  1  0
 23 28  1  0
 24 25  1  0
 25 26  1  0
 25 48  1  0
 25 49  1  0
 26 27  1  0
 26 50  1  0
 26 51  1  0
 28 29  2  0
 28 52  1  0
 29 53  1  0
M  END
>  <group_name>  (1) 
JNS

>  <molecule_index>  (1) 
02466

>  <conformer_index>  (1) 
02

>  <method>  (1) 
b3lyp-d3bj

>  <basis>  (1) 
dzvp

>  <program>  (1) 
psi4

>  <initial_energy>  (1) 
-896787.9942174992 kilocalorie / mole

>  <final_energy>  (1) 
-896844.519057062 kilocalorie / mole

$$$$
