JNS-01155-04
     RDKit          3D

 46 50  0  0  0  0  0  0  0  0999 V2000
   -0.5395   -0.2866   -0.6745 F   0  0  0  0  0  0  0  0  0  0  0  0
    0.4645   -0.6717   -1.5078 C   0  0  0  0  0  0  0  0  0  0  0  0
    0.2478   -1.9735   -1.8118 F   0  0  0  0  0  0  0  0  0  0  0  0
    0.3522    0.0452   -2.6344 F   0  0  0  0  0  0  0  0  0  0  0  0
    1.8179   -0.4730   -0.8752 C   0  0  0  0  0  0  0  0  0  0  0  0
    2.6547    0.4634   -1.2575 N   0  0  0  0  0  0  0  0  0  0  0  0
    3.7730    0.3017   -0.4546 C   0  0  0  0  0  0  0  0  0  0  0  0
    3.5670   -0.7763    0.4366 C   0  0  0  0  0  0  0  0  0  0  0  0
    4.3881   -1.2373    1.3755 N   0  0  0  0  0  0  0  0  0  0  0  0
    5.5336   -0.5499    1.4292 C   0  0  0  0  0  0  0  0  0  0  0  0
    5.8808    0.5386    0.6207 C   0  0  0  0  0  0  0  0  0  0  0  0
    4.9936    1.0287   -0.3699 C   0  0  0  0  0  0  0  0  0  0  0  0
    5.2754    2.1301   -1.1431 N   0  0  0  0  0  0  0  0  0  0  0  0
    6.5304    2.8575   -0.9396 C   0  0  0  0  0  0  0  0  0  0  0  0
    6.4119    4.2754   -1.4989 C   0  0  0  0  0  0  0  0  0  0  0  0
    6.0148    4.2854   -2.8632 O   0  0  0  0  0  0  0  0  0  0  0  0
    4.7476    3.6458   -3.0073 C   0  0  0  0  0  0  0  0  0  0  0  0
    4.7932    2.1990   -2.5355 C   0  0  0  0  0  0  0  0  0  0  0  0
    6.5100   -1.0601    2.4756 C   0  0  0  0  0  0  0  0  0  0  0  0
    7.6530   -0.3262    2.5053 F   0  0  0  0  0  0  0  0  0  0  0  0
    6.8690   -2.3428    2.2354 F   0  0  0  0  0  0  0  0  0  0  0  0
    5.9775   -1.0169    3.7168 F   0  0  0  0  0  0  0  0  0  0  0  0
    2.2945   -1.2639    0.1533 N   0  0  0  0  0  0  0  0  0  0  0  0
    1.6667   -2.3650    0.8247 C   0  0  0  0  0  0  0  0  0  0  0  0
    0.5367   -2.1488    1.5963 C   0  0  0  0  0  0  0  0  0  0  0  0
   -0.0426   -3.2607    2.2341 C   0  0  0  0  0  0  0  0  0  0  0  0
    0.5498   -4.5437    2.0900 C   0  0  0  0  0  0  0  0  0  0  0  0
   -0.2305   -5.3935    2.8264 N   0  0  0  0  0  0  0  0  0  0  0  0
   -1.2728   -4.7559    3.4308 N   0  0  0  0  0  0  0  0  0  0  0  0
   -1.1727   -3.4817    3.0854 C   0  0  0  0  0  0  0  0  0  0  0  0
    1.7081   -4.7517    1.3204 C   0  0  0  0  0  0  0  0  0  0  0  0
    2.2543   -3.6469    0.6891 C   0  0  0  0  0  0  0  0  0  0  0  0
    6.8560    0.9820    0.7569 H   0  0  0  0  0  0  0  0  0  0  0  0
    6.7397    2.9372    0.1294 H   0  0  0  0  0  0  0  0  0  0  0  0
    7.3694    2.3307   -1.4206 H   0  0  0  0  0  0  0  0  0  0  0  0
    5.6891    4.8446   -0.8940 H   0  0  0  0  0  0  0  0  0  0  0  0
    7.3828    4.7747   -1.4480 H   0  0  0  0  0  0  0  0  0  0  0  0
    4.4972    3.6841   -4.0699 H   0  0  0  0  0  0  0  0  0  0  0  0
    3.9829    4.1991   -2.4414 H   0  0  0  0  0  0  0  0  0  0  0  0
    5.4774    1.6266   -3.1807 H   0  0  0  0  0  0  0  0  0  0  0  0
    3.8003    1.7596   -2.6007 H   0  0  0  0  0  0  0  0  0  0  0  0
    0.1193   -1.1527    1.7008 H   0  0  0  0  0  0  0  0  0  0  0  0
   -0.1189   -6.3877    2.9683 H   0  0  0  0  0  0  0  0  0  0  0  0
   -1.9007   -2.7669    3.4483 H   0  0  0  0  0  0  0  0  0  0  0  0
    2.1627   -5.7329    1.2198 H   0  0  0  0  0  0  0  0  0  0  0  0
    3.1505   -3.7491    0.0862 H   0  0  0  0  0  0  0  0  0  0  0  0
  1  2  1  0
  2  3  1  0
  2  4  1  0
  2  5  1  0
  5  6  2  0
  5 23  1  0
  6  7  1  0
  7  8  2  0
  7 12  1  0
  8  9  1  0
  8 23  1  0
  9 10  2  0
 10 11  1  0
 10 19  1  0
 11 12  2  0
 11 33  1  0
 12 13  1  0
 13 14  1  0
 13 18  1  0
 14 15  1  0
 14 34  1  0
 14 35  1  0
 15 16  1  0
 15 36  1  0
 15 37  1  0
 16 17  1  0
 17 18  1  0
 17 38  1  0
 17 39  1  0
 18 40  1  0
 18 41  1  0
 19 20  1  0
 19 21  1  0
 19 22  1  0
 23 24  1  0
 24 25  2  0
 24 32  1  0
 25 26  1  0
 25 42  1  0
 26 27  2  0
 26 30  1  0
 27 28  1  0
 27 31  1  0
 28 29  1  0
 28 43  1  0
 29 30  2  0
 30 44  1  0
 31 32  2  0
 31 45  1  0
 32 46  1  0
M  END
>  <group_name>  (1) 
JNS

>  <molecule_index>  (1) 
01155

>  <conformer_index>  (1) 
04

>  <method>  (1) 
b3lyp-d3bj

>  <basis>  (1) 
dzvp

>  <program>  (1) 
psi4

>  <initial_energy>  (1) 
-1089009.9118789614 kilocalorie / mole

>  <final_energy>  (1) 
-1089102.5888239322 kilocalorie / mole

$$$$
