JNS-01594-06
     RDKit          3D

 39 42  0  0  0  0  0  0  0  0999 V2000
   -0.6268   -0.2043    0.9496 C   0  0  0  0  0  0  0  0  0  0  0  0
   -0.0622   -0.2445   -0.4874 C   0  0  0  0  0  0  0  0  0  0  0  0
   -0.4645   -1.5334   -1.2147 C   0  0  0  0  0  0  0  0  0  0  0  0
    1.4326   -0.0891   -0.4469 C   0  0  0  0  0  0  0  0  0  0  0  0
    2.2981   -1.0782   -0.5549 N   0  0  0  0  0  0  0  0  0  0  0  0
    3.5462   -0.5083   -0.3622 C   0  0  0  0  0  0  0  0  0  0  0  0
    3.4143    0.8862   -0.1268 C   0  0  0  0  0  0  0  0  0  0  0  0
    4.3863    1.7519    0.1058 N   0  0  0  0  0  0  0  0  0  0  0  0
    5.6134    1.2080    0.1081 C   0  0  0  0  0  0  0  0  0  0  0  0
    5.8873   -0.1513   -0.1141 C   0  0  0  0  0  0  0  0  0  0  0  0
    4.8343   -1.0419   -0.3573 C   0  0  0  0  0  0  0  0  0  0  0  0
    6.7296    2.1957    0.3798 C   0  0  0  0  0  0  0  0  0  0  0  0
    7.9451    1.5911    0.3909 F   0  0  0  0  0  0  0  0  0  0  0  0
    6.7777    3.1702   -0.5583 F   0  0  0  0  0  0  0  0  0  0  0  0
    6.5775    2.8060    1.5795 F   0  0  0  0  0  0  0  0  0  0  0  0
    2.0479    1.1397   -0.1921 N   0  0  0  0  0  0  0  0  0  0  0  0
    1.4376    2.4211   -0.0458 C   0  0  0  0  0  0  0  0  0  0  0  0
    1.5413    3.0953    1.1621 C   0  0  0  0  0  0  0  0  0  0  0  0
    0.9434    4.3635    1.2632 C   0  0  0  0  0  0  0  0  0  0  0  0
    0.2483    4.9133    0.1522 C   0  0  0  0  0  0  0  0  0  0  0  0
   -0.2237    6.1261    0.5625 N   0  0  0  0  0  0  0  0  0  0  0  0
    0.1187    6.4045    1.8511 N   0  0  0  0  0  0  0  0  0  0  0  0
    0.8131    5.3631    2.2823 C   0  0  0  0  0  0  0  0  0  0  0  0
    0.1633    4.2207   -1.0637 C   0  0  0  0  0  0  0  0  0  0  0  0
   -0.7595    5.0072   -2.5412 Br  0  0  0  0  0  0  0  0  0  0  0  0
    0.7699    2.9819   -1.1639 C   0  0  0  0  0  0  0  0  0  0  0  0
   -1.7174   -0.2943    0.9244 H   0  0  0  0  0  0  0  0  0  0  0  0
   -0.3759    0.7322    1.4562 H   0  0  0  0  0  0  0  0  0  0  0  0
   -0.2261   -1.0351    1.5390 H   0  0  0  0  0  0  0  0  0  0  0  0
   -0.4812    0.6099   -1.0301 H   0  0  0  0  0  0  0  0  0  0  0  0
   -0.0776   -1.5504   -2.2374 H   0  0  0  0  0  0  0  0  0  0  0  0
   -1.5557   -1.6092   -1.2536 H   0  0  0  0  0  0  0  0  0  0  0  0
   -0.0703   -2.4109   -0.6965 H   0  0  0  0  0  0  0  0  0  0  0  0
    6.9126   -0.5013   -0.0933 H   0  0  0  0  0  0  0  0  0  0  0  0
    5.0114   -2.0992   -0.5315 H   0  0  0  0  0  0  0  0  0  0  0  0
    2.0783    2.6494    1.9929 H   0  0  0  0  0  0  0  0  0  0  0  0
   -0.7497    6.8031    0.0262 H   0  0  0  0  0  0  0  0  0  0  0  0
    1.1996    5.3531    3.2937 H   0  0  0  0  0  0  0  0  0  0  0  0
    0.7534    2.4373   -2.1019 H   0  0  0  0  0  0  0  0  0  0  0  0
  1  2  1  0
  1 27  1  0
  1 28  1  0
  1 29  1  0
  2  3  1  0
  2  4  1  0
  2 30  1  0
  3 31  1  0
  3 32  1  0
  3 33  1  0
  4  5  2  0
  4 16  1  0
  5  6  1  0
  6  7  2  0
  6 11  1  0
  7  8  1  0
  7 16  1  0
  8  9  2  0
  9 10  1  0
  9 12  1  0
 10 11  2  0
 10 34  1  0
 11 35  1  0
 12 13  1  0
 12 14  1  0
 12 15  1  0
 16 17  1  0
 17 18  2  0
 17 26  1  0
 18 19  1  0
 18 36  1  0
 19 20  2  0
 19 23  1  0
 20 21  1  0
 20 24  1  0
 21 22  1  0
 21 37  1  0
 22 23  2  0
 23 38  1  0
 24 25  1  0
 24 26  2  0
 26 39  1  0
M  END
>  <group_name>  (1) 
JNS

>  <molecule_index>  (1) 
01594

>  <conformer_index>  (1) 
06

>  <method>  (1) 
b3lyp-d3bj

>  <basis>  (1) 
dzvp

>  <program>  (1) 
psi4

>  <initial_energy>  (1) 
-2386296.114729951 kilocalorie / mole

>  <final_energy>  (1) 
-2386342.0224240115 kilocalorie / mole

$$$$
