JNS-01358-07
     RDKit          3D

 41 45  0  0  0  0  0  0  0  0999 V2000
   -3.2010    1.8460   -0.6522 F   0  0  0  0  0  0  0  0  0  0  0  0
   -2.3610    0.7911   -0.7221 C   0  0  0  0  0  0  0  0  0  0  0  0
   -2.8954   -0.3524   -1.0870 N   0  0  0  0  0  0  0  0  0  0  0  0
   -2.0570   -1.4026   -1.1699 C   0  0  0  0  0  0  0  0  0  0  0  0
   -0.6981   -1.3254   -0.8840 C   0  0  0  0  0  0  0  0  0  0  0  0
   -0.1610   -0.0889   -0.4802 C   0  0  0  0  0  0  0  0  0  0  0  0
   -1.0210    1.0129   -0.4045 C   0  0  0  0  0  0  0  0  0  0  0  0
    1.2807   -0.0024   -0.2037 C   0  0  0  0  0  0  0  0  0  0  0  0
    2.1645   -0.7966   -0.7883 N   0  0  0  0  0  0  0  0  0  0  0  0
    3.3965   -0.3839   -0.3236 C   0  0  0  0  0  0  0  0  0  0  0  0
    3.2374    0.6971    0.5830 C   0  0  0  0  0  0  0  0  0  0  0  0
    4.1960    1.3454    1.2258 N   0  0  0  0  0  0  0  0  0  0  0  0
    5.4309    0.9026    0.9541 C   0  0  0  0  0  0  0  0  0  0  0  0
    5.7311   -0.1546    0.0759 C   0  0  0  0  0  0  0  0  0  0  0  0
    4.6966   -0.8231   -0.5851 C   0  0  0  0  0  0  0  0  0  0  0  0
    6.5320    1.6515    1.6798 C   0  0  0  0  0  0  0  0  0  0  0  0
    6.5191    2.9710    1.3760 F   0  0  0  0  0  0  0  0  0  0  0  0
    7.7602    1.1768    1.3544 F   0  0  0  0  0  0  0  0  0  0  0  0
    6.4053    1.5498    3.0224 F   0  0  0  0  0  0  0  0  0  0  0  0
    1.8681    0.9272    0.6549 N   0  0  0  0  0  0  0  0  0  0  0  0
    1.2461    1.8259    1.5768 C   0  0  0  0  0  0  0  0  0  0  0  0
    1.5626    3.1927    1.5155 C   0  0  0  0  0  0  0  0  0  0  0  0
    0.9594    4.0530    2.4175 C   0  0  0  0  0  0  0  0  0  0  0  0
    0.0442    3.5521    3.3651 C   0  0  0  0  0  0  0  0  0  0  0  0
   -0.4261    4.6095    4.1509 N   0  0  0  0  0  0  0  0  0  0  0  0
    0.1331    5.8324    3.7879 C   0  0  0  0  0  0  0  0  0  0  0  0
   -0.1101    6.9040    4.3115 O   0  0  0  0  0  0  0  0  0  0  0  0
    1.0904    5.5408    2.6213 C   0  0  0  0  0  0  0  0  0  0  0  0
   -0.2702    2.1974    3.4375 C   0  0  0  0  0  0  0  0  0  0  0  0
    0.3566    1.3314    2.5337 C   0  0  0  0  0  0  0  0  0  0  0  0
   -2.5044   -2.3445   -1.4795 H   0  0  0  0  0  0  0  0  0  0  0  0
   -0.0555   -2.1938   -0.9717 H   0  0  0  0  0  0  0  0  0  0  0  0
   -0.6905    2.0051   -0.1260 H   0  0  0  0  0  0  0  0  0  0  0  0
    6.7640   -0.4413   -0.0823 H   0  0  0  0  0  0  0  0  0  0  0  0
    4.8921   -1.6434   -1.2692 H   0  0  0  0  0  0  0  0  0  0  0  0
    2.2729    3.5518    0.7772 H   0  0  0  0  0  0  0  0  0  0  0  0
   -1.0961    4.5314    4.9062 H   0  0  0  0  0  0  0  0  0  0  0  0
    2.1026    5.8522    2.8978 H   0  0  0  0  0  0  0  0  0  0  0  0
    0.7920    6.1336    1.7512 H   0  0  0  0  0  0  0  0  0  0  0  0
   -0.9693    1.8128    4.1743 H   0  0  0  0  0  0  0  0  0  0  0  0
    0.1453    0.2672    2.5681 H   0  0  0  0  0  0  0  0  0  0  0  0
  1  2  1  0
  2  3  2  0
  2  7  1  0
  3  4  1  0
  4  5  2  0
  4 31  1  0
  5  6  1  0
  5 32  1  0
  6  7  2  0
  6  8  1  0
  7 33  1  0
  8  9  2  0
  8 20  1  0
  9 10  1  0
 10 11  2  0
 10 15  1  0
 11 12  1  0
 11 20  1  0
 12 13  2  0
 13 14  1  0
 13 16  1  0
 14 15  2  0
 14 34  1  0
 15 35  1  0
 16 17  1  0
 16 18  1  0
 16 19  1  0
 20 21  1  0
 21 22  2  0
 21 30  1  0
 22 23  1  0
 22 36  1  0
 23 24  2  0
 23 28  1  0
 24 25  1  0
 24 29  1  0
 25 26  1  0
 25 37  1  0
 26 27  2  0
 26 28  1  0
 28 38  1  0
 28 39  1  0
 29 30  2  0
 29 40  1  0
 30 41  1  0
M  END
>  <group_name>  (1) 
JNS

>  <molecule_index>  (1) 
01358

>  <conformer_index>  (1) 
07

>  <method>  (1) 
b3lyp-d3bj

>  <basis>  (1) 
dzvp

>  <program>  (1) 
psi4

>  <initial_energy>  (1) 
-952156.7637275782 kilocalorie / mole

>  <final_energy>  (1) 
-952214.8455349448 kilocalorie / mole

$$$$
