JNS-01554-08
     RDKit          3D

 35 38  0  0  0  0  0  0  0  0999 V2000
   -0.6863    0.5437    1.0419 F   0  0  0  0  0  0  0  0  0  0  0  0
   -0.0281   -0.3916    0.2888 C   0  0  0  0  0  0  0  0  0  0  0  0
   -0.6126   -0.4078   -0.9360 F   0  0  0  0  0  0  0  0  0  0  0  0
    1.3726   -0.0808    0.1831 N   0  0  0  0  0  0  0  0  0  0  0  0
    2.1799   -0.9013    0.9291 N   0  0  0  0  0  0  0  0  0  0  0  0
    3.4169   -0.4838    0.6298 C   0  0  0  0  0  0  0  0  0  0  0  0
    4.6714   -0.9566    1.0975 C   0  0  0  0  0  0  0  0  0  0  0  0
    5.7882   -0.3318    0.5946 C   0  0  0  0  0  0  0  0  0  0  0  0
    5.6469    0.7385   -0.3489 C   0  0  0  0  0  0  0  0  0  0  0  0
    4.5042    1.2073   -0.7988 N   0  0  0  0  0  0  0  0  0  0  0  0
    3.3957    0.5948   -0.3142 C   0  0  0  0  0  0  0  0  0  0  0  0
    2.0336    0.8490   -0.5870 C   0  0  0  0  0  0  0  0  0  0  0  0
    1.4544    1.8577   -1.4737 C   0  0  0  0  0  0  0  0  0  0  0  0
    2.1832    2.2042   -2.6286 C   0  0  0  0  0  0  0  0  0  0  0  0
    1.7045    3.1753   -3.5063 C   0  0  0  0  0  0  0  0  0  0  0  0
    2.6010    3.6039   -4.9505 Cl  0  0  0  0  0  0  0  0  0  0  0  0
    0.4981    3.8101   -3.2275 C   0  0  0  0  0  0  0  0  0  0  0  0
   -0.1679    4.8003   -3.9434 N   0  0  0  0  0  0  0  0  0  0  0  0
   -1.3524    5.1920   -3.3191 C   0  0  0  0  0  0  0  0  0  0  0  0
   -2.1206    6.0398   -3.7322 O   0  0  0  0  0  0  0  0  0  0  0  0
   -1.4672    4.3468   -2.0398 C   0  0  0  0  0  0  0  0  0  0  0  0
   -0.2300    3.4829   -2.0677 C   0  0  0  0  0  0  0  0  0  0  0  0
    0.2371    2.5206   -1.1927 C   0  0  0  0  0  0  0  0  0  0  0  0
    6.9011    1.4376   -0.8477 C   0  0  0  0  0  0  0  0  0  0  0  0
    6.7218    2.0411   -2.0320 F   0  0  0  0  0  0  0  0  0  0  0  0
    7.9280    0.5565   -0.9825 F   0  0  0  0  0  0  0  0  0  0  0  0
    7.3138    2.3823    0.0386 F   0  0  0  0  0  0  0  0  0  0  0  0
   -0.1224   -1.3630    0.7709 H   0  0  0  0  0  0  0  0  0  0  0  0
    4.7379   -1.7719    1.8117 H   0  0  0  0  0  0  0  0  0  0  0  0
    6.7828   -0.6412    0.8970 H   0  0  0  0  0  0  0  0  0  0  0  0
    3.1290    1.7200   -2.8393 H   0  0  0  0  0  0  0  0  0  0  0  0
    0.1576    5.2096   -4.8114 H   0  0  0  0  0  0  0  0  0  0  0  0
   -2.3994    3.7742   -2.0671 H   0  0  0  0  0  0  0  0  0  0  0  0
   -1.5164    5.0117   -1.1719 H   0  0  0  0  0  0  0  0  0  0  0  0
   -0.3179    2.2987   -0.2896 H   0  0  0  0  0  0  0  0  0  0  0  0
  1  2  1  0
  2  3  1  0
  2  4  1  0
  2 28  1  0
  4  5  1  0
  4 12  1  0
  5  6  2  0
  6  7  1  0
  6 11  1  0
  7  8  2  0
  7 29  1  0
  8  9  1  0
  8 30  1  0
  9 10  2  0
  9 24  1  0
 10 11  1  0
 11 12  2  0
 12 13  1  0
 13 14  2  0
 13 23  1  0
 14 15  1  0
 14 31  1  0
 15 16  1  0
 15 17  2  0
 17 18  1  0
 17 22  1  0
 18 19  1  0
 18 32  1  0
 19 20  2  0
 19 21  1  0
 21 22  1  0
 21 33  1  0
 21 34  1  0
 22 23  2  0
 23 35  1  0
 24 25  1  0
 24 26  1  0
 24 27  1  0
M  END
>  <group_name>  (1) 
JNS

>  <molecule_index>  (1) 
01554

>  <conformer_index>  (1) 
08

>  <method>  (1) 
b3lyp-d3bj

>  <basis>  (1) 
dzvp

>  <program>  (1) 
psi4

>  <initial_energy>  (1) 
-1172408.043558376 kilocalorie / mole

>  <final_energy>  (1) 
-1172456.7487704747 kilocalorie / mole

$$$$
