JNS-01474-03
     RDKit          3D

 39 42  0  0  0  0  0  0  0  0999 V2000
   -2.1845    0.7639   -0.0014 C   0  0  0  0  0  0  0  0  0  0  0  0
   -0.7109    0.3753    0.1553 C   0  0  0  0  0  0  0  0  0  0  0  0
    0.1939    1.0600   -0.8603 C   0  0  0  0  0  0  0  0  0  0  0  0
    0.0817    2.4166   -0.7441 F   0  0  0  0  0  0  0  0  0  0  0  0
   -0.2267    0.7489   -2.1481 F   0  0  0  0  0  0  0  0  0  0  0  0
    1.6597    0.6933   -0.7306 C   0  0  0  0  0  0  0  0  0  0  0  0
    2.5825    1.5430   -0.3391 N   0  0  0  0  0  0  0  0  0  0  0  0
    3.7523    0.8044   -0.2859 C   0  0  0  0  0  0  0  0  0  0  0  0
    3.4964   -0.5408   -0.6576 C   0  0  0  0  0  0  0  0  0  0  0  0
    4.3727   -1.5319   -0.7135 N   0  0  0  0  0  0  0  0  0  0  0  0
    5.6194   -1.1753   -0.3780 C   0  0  0  0  0  0  0  0  0  0  0  0
    6.0114    0.1205    0.0046 C   0  0  0  0  0  0  0  0  0  0  0  0
    5.0619    1.1455    0.0557 C   0  0  0  0  0  0  0  0  0  0  0  0
    6.6252   -2.3099   -0.4283 C   0  0  0  0  0  0  0  0  0  0  0  0
    6.6906   -2.8688   -1.6572 F   0  0  0  0  0  0  0  0  0  0  0  0
    6.3059   -3.2957    0.4439 F   0  0  0  0  0  0  0  0  0  0  0  0
    7.8752   -1.8862   -0.1121 F   0  0  0  0  0  0  0  0  0  0  0  0
    2.1361   -0.5971   -0.9452 N   0  0  0  0  0  0  0  0  0  0  0  0
    1.4417   -1.7832   -1.3561 C   0  0  0  0  0  0  0  0  0  0  0  0
    1.3061   -2.8231   -0.4482 C   0  0  0  0  0  0  0  0  0  0  0  0
    0.6552   -3.9923   -0.8784 C   0  0  0  0  0  0  0  0  0  0  0  0
    0.1642   -4.0747   -2.2095 C   0  0  0  0  0  0  0  0  0  0  0  0
   -0.4115   -5.3122   -2.3125 N   0  0  0  0  0  0  0  0  0  0  0  0
   -0.3239   -6.0284   -1.1557 N   0  0  0  0  0  0  0  0  0  0  0  0
    0.3102   -5.2524   -0.2909 C   0  0  0  0  0  0  0  0  0  0  0  0
    0.3175   -3.0233   -3.1297 C   0  0  0  0  0  0  0  0  0  0  0  0
    0.9688   -1.8828   -2.6873 C   0  0  0  0  0  0  0  0  0  0  0  0
   -2.7837    0.2496    0.7556 H   0  0  0  0  0  0  0  0  0  0  0  0
   -2.5635    0.4789   -0.9861 H   0  0  0  0  0  0  0  0  0  0  0  0
   -2.3268    1.8401    0.1245 H   0  0  0  0  0  0  0  0  0  0  0  0
   -0.3373    0.6493    1.1476 H   0  0  0  0  0  0  0  0  0  0  0  0
   -0.5838   -0.7048    0.0457 H   0  0  0  0  0  0  0  0  0  0  0  0
    7.0471    0.3134    0.2579 H   0  0  0  0  0  0  0  0  0  0  0  0
    5.3273    2.1574    0.3470 H   0  0  0  0  0  0  0  0  0  0  0  0
    1.7010   -2.7284    0.5587 H   0  0  0  0  0  0  0  0  0  0  0  0
   -0.8559   -5.7356   -3.1152 H   0  0  0  0  0  0  0  0  0  0  0  0
    0.5031   -5.6103    0.7128 H   0  0  0  0  0  0  0  0  0  0  0  0
   -0.0480   -3.0948   -4.1499 H   0  0  0  0  0  0  0  0  0  0  0  0
    1.1196   -1.0455   -3.3592 H   0  0  0  0  0  0  0  0  0  0  0  0
  1  2  1  0
  1 28  1  0
  1 29  1  0
  1 30  1  0
  2  3  1  0
  2 31  1  0
  2 32  1  0
  3  4  1  0
  3  5  1  0
  3  6  1  0
  6  7  2  0
  6 18  1  0
  7  8  1  0
  8  9  2  0
  8 13  1  0
  9 10  1  0
  9 18  1  0
 10 11  2  0
 11 12  1  0
 11 14  1  0
 12 13  2  0
 12 33  1  0
 13 34  1  0
 14 15  1  0
 14 16  1  0
 14 17  1  0
 18 19  1  0
 19 20  2  0
 19 27  1  0
 20 21  1  0
 20 35  1  0
 21 22  2  0
 21 25  1  0
 22 23  1  0
 22 26  1  0
 23 24  1  0
 23 36  1  0
 24 25  2  0
 25 37  1  0
 26 27  2  0
 26 38  1  0
 27 39  1  0
M  END
>  <group_name>  (1) 
JNS

>  <molecule_index>  (1) 
01474

>  <conformer_index>  (1) 
03

>  <method>  (1) 
b3lyp-d3bj

>  <basis>  (1) 
dzvp

>  <program>  (1) 
psi4

>  <initial_energy>  (1) 
-896217.1428721736 kilocalorie / mole

>  <final_energy>  (1) 
-896276.3099416263 kilocalorie / mole

$$$$
