JNS-01356-06
     RDKit          3D

 33 36  0  0  0  0  0  0  0  0999 V2000
   -1.4108   -3.3550    1.2774 F   0  0  0  0  0  0  0  0  0  0  0  0
   -0.4817   -2.6475    0.6281 C   0  0  0  0  0  0  0  0  0  0  0  0
   -0.2714   -3.2404   -0.5755 F   0  0  0  0  0  0  0  0  0  0  0  0
    0.6783   -2.7288    1.3219 F   0  0  0  0  0  0  0  0  0  0  0  0
   -0.9152   -1.2088    0.4628 C   0  0  0  0  0  0  0  0  0  0  0  0
   -2.1445   -0.8067    0.6813 N   0  0  0  0  0  0  0  0  0  0  0  0
   -2.1161    0.5564    0.4389 C   0  0  0  0  0  0  0  0  0  0  0  0
   -0.8082    0.9580    0.0649 C   0  0  0  0  0  0  0  0  0  0  0  0
   -0.4044    2.1853   -0.2258 N   0  0  0  0  0  0  0  0  0  0  0  0
   -1.3715    3.1070   -0.1496 C   0  0  0  0  0  0  0  0  0  0  0  0
   -2.7095    2.8454    0.2023 C   0  0  0  0  0  0  0  0  0  0  0  0
   -3.1044    1.5408    0.5071 C   0  0  0  0  0  0  0  0  0  0  0  0
   -0.9138    4.5173   -0.4769 C   0  0  0  0  0  0  0  0  0  0  0  0
    0.0734    4.9214    0.3544 F   0  0  0  0  0  0  0  0  0  0  0  0
   -0.4402    4.6057   -1.7394 F   0  0  0  0  0  0  0  0  0  0  0  0
   -1.9280    5.4102   -0.3624 F   0  0  0  0  0  0  0  0  0  0  0  0
   -0.0401   -0.2027    0.0773 N   0  0  0  0  0  0  0  0  0  0  0  0
    1.3541   -0.2745   -0.2405 C   0  0  0  0  0  0  0  0  0  0  0  0
    2.2563    0.4325    0.5656 C   0  0  0  0  0  0  0  0  0  0  0  0
    3.5787    0.3307    0.1837 C   0  0  0  0  0  0  0  0  0  0  0  0
    4.0442   -0.4172   -0.9138 C   0  0  0  0  0  0  0  0  0  0  0  0
    5.4340   -0.2974   -0.9900 N   0  0  0  0  0  0  0  0  0  0  0  0
    5.7215    0.4759    0.0118 C   0  0  0  0  0  0  0  0  0  0  0  0
    6.9140    0.9113    0.4004 O   0  0  0  0  0  0  0  0  0  0  0  0
    4.6864    0.9113    0.7824 O   0  0  0  0  0  0  0  0  0  0  0  0
    3.1142   -1.1038   -1.6961 C   0  0  0  0  0  0  0  0  0  0  0  0
    3.6741   -2.1267   -3.1982 Br  0  0  0  0  0  0  0  0  0  0  0  0
    1.7620   -1.0167   -1.3587 C   0  0  0  0  0  0  0  0  0  0  0  0
   -3.4220    3.6609    0.2368 H   0  0  0  0  0  0  0  0  0  0  0  0
   -4.1263    1.3017    0.7858 H   0  0  0  0  0  0  0  0  0  0  0  0
    1.9298    1.0164    1.4181 H   0  0  0  0  0  0  0  0  0  0  0  0
    7.5687    0.5407   -0.2192 H   0  0  0  0  0  0  0  0  0  0  0  0
    1.0205   -1.5258   -1.9630 H   0  0  0  0  0  0  0  0  0  0  0  0
  1  2  1  0
  2  3  1  0
  2  4  1  0
  2  5  1  0
  5  6  2  0
  5 17  1  0
  6  7  1  0
  7  8  2  0
  7 12  1  0
  8  9  1  0
  8 17  1  0
  9 10  2  0
 10 11  1  0
 10 13  1  0
 11 12  2  0
 11 29  1  0
 12 30  1  0
 13 14  1  0
 13 15  1  0
 13 16  1  0
 17 18  1  0
 18 19  2  0
 18 28  1  0
 19 20  1  0
 19 31  1  0
 20 21  2  0
 20 25  1  0
 21 22  1  0
 21 26  1  0
 22 23  2  0
 23 24  1  0
 23 25  1  0
 24 32  1  0
 26 27  1  0
 26 28  2  0
 28 33  1  0
M  END
>  <group_name>  (1) 
JNS

>  <molecule_index>  (1) 
01356

>  <conformer_index>  (1) 
06

>  <method>  (1) 
b3lyp-d3bj

>  <basis>  (1) 
dzvp

>  <program>  (1) 
psi4

>  <initial_energy>  (1) 
-2583469.4807192325 kilocalorie / mole

>  <final_energy>  (1) 
-2583544.9197781854 kilocalorie / mole

$$$$
