JNS-00129-05
     RDKit          3D

 31 33  0  0  0  0  0  0  0  0999 V2000
    0.3476   -1.9062    1.3092 N   0  0  0  0  0  0  0  0  0  0  0  0
   -0.5764   -1.0044    0.7293 C   0  0  0  0  0  0  0  0  0  0  0  0
   -0.0783   -0.0099   -0.1751 C   0  0  0  0  0  0  0  0  0  0  0  0
    1.2823   -0.0138   -0.4158 N   0  0  0  0  0  0  0  0  0  0  0  0
    2.0517    0.8183   -1.2613 C   0  0  0  0  0  0  0  0  0  0  0  0
    1.6235    2.0536   -1.7440 C   0  0  0  0  0  0  0  0  0  0  0  0
    2.5186    2.7980   -2.5381 C   0  0  0  0  0  0  0  0  0  0  0  0
    3.8127    2.3027   -2.8353 C   0  0  0  0  0  0  0  0  0  0  0  0
    4.4112    3.2603   -3.6155 N   0  0  0  0  0  0  0  0  0  0  0  0
    3.5971    4.3287   -3.8409 N   0  0  0  0  0  0  0  0  0  0  0  0
    2.4644    4.0656   -3.2034 C   0  0  0  0  0  0  0  0  0  0  0  0
    4.2475    1.0577   -2.3519 C   0  0  0  0  0  0  0  0  0  0  0  0
    3.3575    0.3369   -1.5732 C   0  0  0  0  0  0  0  0  0  0  0  0
   -0.8762    0.8848   -0.7483 N   0  0  0  0  0  0  0  0  0  0  0  0
   -2.1952    0.8164   -0.5092 C   0  0  0  0  0  0  0  0  0  0  0  0
   -2.7918   -0.1395    0.2955 C   0  0  0  0  0  0  0  0  0  0  0  0
   -1.9452   -1.0633    0.9347 C   0  0  0  0  0  0  0  0  0  0  0  0
   -3.0107    1.8733   -1.2213 C   0  0  0  0  0  0  0  0  0  0  0  0
   -2.5849    3.1243   -0.9217 F   0  0  0  0  0  0  0  0  0  0  0  0
   -2.9390    1.7448   -2.5682 F   0  0  0  0  0  0  0  0  0  0  0  0
   -4.3242    1.8055   -0.8843 F   0  0  0  0  0  0  0  0  0  0  0  0
    1.0629   -1.4251    1.8529 H   0  0  0  0  0  0  0  0  0  0  0  0
   -0.1080   -2.5939    1.9027 H   0  0  0  0  0  0  0  0  0  0  0  0
    1.7154   -0.9034   -0.1947 H   0  0  0  0  0  0  0  0  0  0  0  0
    0.6298    2.4168   -1.5242 H   0  0  0  0  0  0  0  0  0  0  0  0
    5.3340    3.2551   -4.0256 H   0  0  0  0  0  0  0  0  0  0  0  0
    1.6505    4.7792   -3.2367 H   0  0  0  0  0  0  0  0  0  0  0  0
    5.2354    0.6641   -2.5744 H   0  0  0  0  0  0  0  0  0  0  0  0
    3.6646   -0.6330   -1.1861 H   0  0  0  0  0  0  0  0  0  0  0  0
   -3.8642   -0.1590    0.4477 H   0  0  0  0  0  0  0  0  0  0  0  0
   -2.3597   -1.8112    1.6073 H   0  0  0  0  0  0  0  0  0  0  0  0
  1  2  1  0
  1 22  1  0
  1 23  1  0
  2  3  2  0
  2 17  1  0
  3  4  1  0
  3 14  1  0
  4  5  1  0
  4 24  1  0
  5  6  2  0
  5 13  1  0
  6  7  1  0
  6 25  1  0
  7  8  2  0
  7 11  1  0
  8  9  1  0
  8 12  1  0
  9 10  1  0
  9 26  1  0
 10 11  2  0
 11 27  1  0
 12 13  2  0
 12 28  1  0
 13 29  1  0
 14 15  2  0
 15 16  1  0
 15 18  1  0
 16 17  2  0
 16 30  1  0
 17 31  1  0
 18 19  1  0
 18 20  1  0
 18 21  1  0
M  END
>  <group_name>  (1) 
JNS

>  <molecule_index>  (1) 
00129

>  <conformer_index>  (1) 
05

>  <method>  (1) 
b3lyp-d3bj

>  <basis>  (1) 
dzvp

>  <program>  (1) 
psi4

>  <initial_energy>  (1) 
-674469.1000182101 kilocalorie / mole

>  <final_energy>  (1) 
-674510.4041949211 kilocalorie / mole

$$$$
