JNS-01564-06
     RDKit          3D

 45 49  0  0  0  0  0  0  0  0999 V2000
   -2.9109    2.5152   -0.6567 C   0  0  0  0  0  0  0  0  0  0  0  0
   -2.0519    1.3056   -0.3816 C   0  0  0  0  0  0  0  0  0  0  0  0
   -2.6165    0.0653   -0.0754 C   0  0  0  0  0  0  0  0  0  0  0  0
   -3.9747   -0.2650    0.0373 N   0  0  0  0  0  0  0  0  0  0  0  0
   -4.1704   -1.6096    0.3389 C   0  0  0  0  0  0  0  0  0  0  0  0
   -5.2527   -2.1488    0.4912 O   0  0  0  0  0  0  0  0  0  0  0  0
   -2.7717   -2.2380    0.4352 C   0  0  0  0  0  0  0  0  0  0  0  0
   -1.8405   -1.0834    0.1585 C   0  0  0  0  0  0  0  0  0  0  0  0
   -0.4599   -1.0125    0.1029 C   0  0  0  0  0  0  0  0  0  0  0  0
    0.1538    0.2284   -0.1801 C   0  0  0  0  0  0  0  0  0  0  0  0
   -0.6524    1.3528   -0.4309 C   0  0  0  0  0  0  0  0  0  0  0  0
    1.6138    0.2841   -0.2630 C   0  0  0  0  0  0  0  0  0  0  0  0
    2.5053   -0.6689   -0.8084 C   0  0  0  0  0  0  0  0  0  0  0  0
    2.2560   -1.8748   -1.3717 N   0  0  0  0  0  0  0  0  0  0  0  0
    3.3213   -2.5237   -1.7965 C   0  0  0  0  0  0  0  0  0  0  0  0
    4.6672   -2.0485   -1.7080 C   0  0  0  0  0  0  0  0  0  0  0  0
    4.9270   -0.8195   -1.1403 C   0  0  0  0  0  0  0  0  0  0  0  0
    3.8084   -0.0914   -0.6675 C   0  0  0  0  0  0  0  0  0  0  0  0
    3.7472    1.1126   -0.0692 N   0  0  0  0  0  0  0  0  0  0  0  0
    2.4196    1.3012    0.1639 N   0  0  0  0  0  0  0  0  0  0  0  0
    2.0290    2.5172    0.8773 C   0  0  0  0  0  0  0  0  0  0  0  0
    1.0839    2.3917    2.1014 C   0  0  0  0  0  0  0  0  0  0  0  0
    1.9577    3.4640    2.8108 C   0  0  0  0  0  0  0  0  0  0  0  0
    3.0946    3.1563    1.7963 C   0  0  0  0  0  0  0  0  0  0  0  0
    3.0829   -3.8668   -2.4603 C   0  0  0  0  0  0  0  0  0  0  0  0
    3.3095   -3.7958   -3.8020 F   0  0  0  0  0  0  0  0  0  0  0  0
    3.9418   -4.8083   -1.9786 F   0  0  0  0  0  0  0  0  0  0  0  0
    1.8358   -4.3283   -2.2849 F   0  0  0  0  0  0  0  0  0  0  0  0
   -2.2978    3.3884   -0.8935 H   0  0  0  0  0  0  0  0  0  0  0  0
   -3.5843    2.3452   -1.5055 H   0  0  0  0  0  0  0  0  0  0  0  0
   -3.5327    2.7728    0.2095 H   0  0  0  0  0  0  0  0  0  0  0  0
   -4.7521    0.3710   -0.0877 H   0  0  0  0  0  0  0  0  0  0  0  0
   -2.6417   -2.6808    1.4276 H   0  0  0  0  0  0  0  0  0  0  0  0
   -2.6878   -3.0482   -0.2960 H   0  0  0  0  0  0  0  0  0  0  0  0
    0.1531   -1.8929    0.2647 H   0  0  0  0  0  0  0  0  0  0  0  0
   -0.1833    2.2935   -0.7027 H   0  0  0  0  0  0  0  0  0  0  0  0
    5.4730   -2.6679   -2.0882 H   0  0  0  0  0  0  0  0  0  0  0  0
    5.9363   -0.4271   -1.0555 H   0  0  0  0  0  0  0  0  0  0  0  0
    1.6525    3.2461    0.1535 H   0  0  0  0  0  0  0  0  0  0  0  0
    0.0252    2.6028    1.9437 H   0  0  0  0  0  0  0  0  0  0  0  0
    1.1839    1.4079    2.5674 H   0  0  0  0  0  0  0  0  0  0  0  0
    2.1793    3.3034    3.8682 H   0  0  0  0  0  0  0  0  0  0  0  0
    1.5500    4.4712    2.6856 H   0  0  0  0  0  0  0  0  0  0  0  0
    3.7837    2.3980    2.1706 H   0  0  0  0  0  0  0  0  0  0  0  0
    3.6705    3.9857    1.3816 H   0  0  0  0  0  0  0  0  0  0  0  0
  1  2  1  0
  1 29  1  0
  1 30  1  0
  1 31  1  0
  2  3  2  0
  2 11  1  0
  3  4  1  0
  3  8  1  0
  4  5  1  0
  4 32  1  0
  5  6  2  0
  5  7  1  0
  7  8  1  0
  7 33  1  0
  7 34  1  0
  8  9  2  0
  9 10  1  0
  9 35  1  0
 10 11  2  0
 10 12  1  0
 11 36  1  0
 12 13  2  0
 12 20  1  0
 13 14  1  0
 13 18  1  0
 14 15  2  0
 15 16  1  0
 15 25  1  0
 16 17  2  0
 16 37  1  0
 17 18  1  0
 17 38  1  0
 18 19  2  0
 19 20  1  0
 20 21  1  0
 21 22  1  0
 21 24  1  0
 21 39  1  0
 22 23  1  0
 22 40  1  0
 22 41  1  0
 23 24  1  0
 23 42  1  0
 23 43  1  0
 24 44  1  0
 24 45  1  0
 25 26  1  0
 25 27  1  0
 25 28  1  0
M  END
>  <group_name>  (1) 
JNS

>  <molecule_index>  (1) 
01564

>  <conformer_index>  (1) 
06

>  <method>  (1) 
b3lyp-d3bj

>  <basis>  (1) 
dzvp

>  <program>  (1) 
psi4

>  <initial_energy>  (1) 
-857379.4623599134 kilocalorie / mole

>  <final_energy>  (1) 
-857425.8799833189 kilocalorie / mole

$$$$
