JNS-02239-00
     RDKit          3D

 53 57  0  0  0  0  0  0  0  0999 V2000
   -3.9143   -0.4120    0.3805 C   0  0  0  0  0  0  0  0  0  0  0  0
   -2.6114    0.1946    0.1666 N   0  0  0  0  0  0  0  0  0  0  0  0
   -1.3933   -0.3668    0.3228 C   0  0  0  0  0  0  0  0  0  0  0  0
   -0.4428    0.6156    0.0305 C   0  0  0  0  0  0  0  0  0  0  0  0
   -1.2335    1.7553   -0.3034 C   0  0  0  0  0  0  0  0  0  0  0  0
   -2.5380    1.4948   -0.2212 N   0  0  0  0  0  0  0  0  0  0  0  0
    1.0020    0.3748    0.0539 C   0  0  0  0  0  0  0  0  0  0  0  0
    1.9836    1.3900   -0.0118 C   0  0  0  0  0  0  0  0  0  0  0  0
    1.6655    2.8706   -0.0373 C   0  0  0  0  0  0  0  0  0  0  0  0
    2.9095    3.7046    0.2883 C   0  0  1  0  0  0  0  0  0  0  0  0
    3.3262    3.5972    1.7814 C   0  0  0  0  0  0  0  0  0  0  0  0
    4.8340    3.3629    1.9268 C   0  0  0  0  0  0  0  0  0  0  0  0
    5.2499    2.0602    1.2258 C   0  0  0  0  0  0  0  0  0  0  0  0
    4.4909    1.9072   -0.1249 C   0  0  2  0  0  0  0  0  0  0  0  0
    4.0048    3.2146   -0.5640 N   0  0  0  0  0  0  0  0  0  0  0  0
    4.2084    3.7813   -1.7807 C   0  0  0  0  0  0  0  0  0  0  0  0
    3.5504    4.7301   -2.2147 O   0  0  0  0  0  0  0  0  0  0  0  0
    5.3117    3.2129   -2.6434 C   0  0  0  0  0  0  0  0  0  0  0  0
    5.0294    2.8211   -3.9556 C   0  0  0  0  0  0  0  0  0  0  0  0
    6.0642    2.3603   -4.7702 C   0  0  0  0  0  0  0  0  0  0  0  0
    7.3386    2.2862   -4.3655 N   0  0  0  0  0  0  0  0  0  0  0  0
    7.6250    2.6779   -3.1257 C   0  0  0  0  0  0  0  0  0  0  0  0
    6.6440    3.1453   -2.2469 C   0  0  0  0  0  0  0  0  0  0  0  0
    6.9940    3.5355   -1.0032 F   0  0  0  0  0  0  0  0  0  0  0  0
    9.0759    2.5946   -2.6719 C   0  0  0  0  0  0  0  0  0  0  0  0
    9.1943    1.7865   -1.5857 F   0  0  0  0  0  0  0  0  0  0  0  0
    9.5449    3.8151   -2.3118 F   0  0  0  0  0  0  0  0  0  0  0  0
    9.8772    2.1123   -3.6294 F   0  0  0  0  0  0  0  0  0  0  0  0
    3.3131    0.9463   -0.0204 C   0  0  0  0  0  0  0  0  0  0  0  0
    3.6582   -0.3446    0.0727 N   0  0  0  0  0  0  0  0  0  0  0  0
    2.6560   -1.2307    0.1739 C   0  0  0  0  0  0  0  0  0  0  0  0
    3.0276   -2.6864    0.2748 C   0  0  0  0  0  0  0  0  0  0  0  0
    1.3553   -0.9259    0.1576 N   0  0  0  0  0  0  0  0  0  0  0  0
   -4.4243    0.0790    1.2135 H   0  0  0  0  0  0  0  0  0  0  0  0
   -4.5196   -0.3071   -0.5226 H   0  0  0  0  0  0  0  0  0  0  0  0
   -3.7790   -1.4702    0.6086 H   0  0  0  0  0  0  0  0  0  0  0  0
   -1.2542   -1.3966    0.6172 H   0  0  0  0  0  0  0  0  0  0  0  0
   -0.9243    2.7394   -0.6235 H   0  0  0  0  0  0  0  0  0  0  0  0
    0.8780    3.0982    0.6888 H   0  0  0  0  0  0  0  0  0  0  0  0
    1.2912    3.1649   -1.0246 H   0  0  0  0  0  0  0  0  0  0  0  0
    2.7370    4.7438    0.0111 H   0  0  0  0  0  0  0  0  0  0  0  0
    2.7865    2.7706    2.2581 H   0  0  0  0  0  0  0  0  0  0  0  0
    3.0236    4.5106    2.3017 H   0  0  0  0  0  0  0  0  0  0  0  0
    5.3754    4.2061    1.4849 H   0  0  0  0  0  0  0  0  0  0  0  0
    5.1123    3.3243    2.9847 H   0  0  0  0  0  0  0  0  0  0  0  0
    5.0274    1.1907    1.8504 H   0  0  0  0  0  0  0  0  0  0  0  0
    6.3265    2.0590    1.0417 H   0  0  0  0  0  0  0  0  0  0  0  0
    5.1568    1.4856   -0.8761 H   0  0  0  0  0  0  0  0  0  0  0  0
    4.0118    2.8871   -4.3281 H   0  0  0  0  0  0  0  0  0  0  0  0
    5.8661    2.0400   -5.7902 H   0  0  0  0  0  0  0  0  0  0  0  0
    2.2683   -3.2379    0.8330 H   0  0  0  0  0  0  0  0  0  0  0  0
    4.0046   -2.7998    0.7485 H   0  0  0  0  0  0  0  0  0  0  0  0
    3.0887   -3.1231   -0.7290 H   0  0  0  0  0  0  0  0  0  0  0  0
  1  2  1  0
  1 34  1  0
  1 35  1  0
  1 36  1  0
  2  3  1  0
  2  6  1  0
  3  4  2  0
  3 37  1  0
  4  5  1  0
  4  7  1  0
  5  6  2  0
  5 38  1  0
  7  8  1  0
  7 33  2  0
  8  9  1  0
  8 29  2  0
  9 10  1  0
  9 39  1  0
  9 40  1  0
 10 11  1  0
 10 15  1  0
 10 41  1  6
 11 12  1  0
 11 42  1  0
 11 43  1  0
 12 13  1  0
 12 44  1  0
 12 45  1  0
 13 14  1  0
 13 46  1  0
 13 47  1  0
 14 15  1  0
 14 29  1  0
 14 48  1  6
 15 16  1  0
 16 17  2  0
 16 18  1  0
 18 19  2  0
 18 23  1  0
 19 20  1  0
 19 49  1  0
 20 21  2  0
 20 50  1  0
 21 22  1  0
 22 23  2  0
 22 25  1  0
 23 24  1  0
 25 26  1  0
 25 27  1  0
 25 28  1  0
 29 30  1  0
 30 31  2  0
 31 32  1  0
 31 33  1  0
 32 51  1  0
 32 52  1  0
 32 53  1  0
M  END
>  <group_name>  (1) 
JNS

>  <molecule_index>  (1) 
02239

>  <conformer_index>  (1) 
00

>  <method>  (1) 
b3lyp-d3bj

>  <basis>  (1) 
dzvp

>  <program>  (1) 
psi4

>  <initial_energy>  (1) 
-1037747.139288407 kilocalorie / mole

>  <final_energy>  (1) 
-1037799.2451519575 kilocalorie / mole

$$$$
