JNS-01658-09
     RDKit          3D

 38 41  0  0  0  0  0  0  0  0999 V2000
   -0.0914   -2.4434   -1.2484 C   0  0  0  0  0  0  0  0  0  0  0  0
   -0.7036   -1.1311   -0.8881 C   0  0  0  0  0  0  0  0  0  0  0  0
   -1.9932   -0.8614   -0.9652 N   0  0  0  0  0  0  0  0  0  0  0  0
   -2.1243    0.4427   -0.5165 C   0  0  0  0  0  0  0  0  0  0  0  0
   -0.8535    0.9649   -0.1540 C   0  0  0  0  0  0  0  0  0  0  0  0
   -0.5951    2.1703    0.3260 N   0  0  0  0  0  0  0  0  0  0  0  0
   -1.6793    2.9488    0.4627 C   0  0  0  0  0  0  0  0  0  0  0  0
   -2.9902    2.5617    0.1398 C   0  0  0  0  0  0  0  0  0  0  0  0
   -3.2309    1.2775   -0.3635 C   0  0  0  0  0  0  0  0  0  0  0  0
   -1.3868    4.3276    1.0174 C   0  0  0  0  0  0  0  0  0  0  0  0
   -2.5142    5.0752    1.1288 F   0  0  0  0  0  0  0  0  0  0  0  0
   -0.8294    4.2630    2.2515 F   0  0  0  0  0  0  0  0  0  0  0  0
   -0.5273    5.0163    0.2308 F   0  0  0  0  0  0  0  0  0  0  0  0
    0.0505   -0.0612   -0.4083 N   0  0  0  0  0  0  0  0  0  0  0  0
    1.4604   -0.0070   -0.1916 C   0  0  0  0  0  0  0  0  0  0  0  0
    2.3401   -0.2081   -1.2658 C   0  0  0  0  0  0  0  0  0  0  0  0
    3.7033   -0.1461   -1.0194 C   0  0  0  0  0  0  0  0  0  0  0  0
    4.1694    0.1368    0.2757 C   0  0  0  0  0  0  0  0  0  0  0  0
    5.5726    0.1603    0.2647 N   0  0  0  0  0  0  0  0  0  0  0  0
    6.0977   -0.0893   -0.9982 C   0  0  0  0  0  0  0  0  0  0  0  0
    7.2824   -0.1221   -1.2806 O   0  0  0  0  0  0  0  0  0  0  0  0
    4.8946   -0.3081   -1.9305 C   0  0  0  0  0  0  0  0  0  0  0  0
    3.3142    0.3615    1.3577 C   0  0  0  0  0  0  0  0  0  0  0  0
    3.8500    0.6834    2.7303 C   0  0  0  0  0  0  0  0  0  0  0  0
    1.9409    0.2749    1.0912 C   0  0  0  0  0  0  0  0  0  0  0  0
    0.6485   -2.7525   -0.5045 H   0  0  0  0  0  0  0  0  0  0  0  0
   -0.8845   -3.1894   -1.3112 H   0  0  0  0  0  0  0  0  0  0  0  0
    0.4156   -2.3964   -2.2178 H   0  0  0  0  0  0  0  0  0  0  0  0
   -3.8062    3.2598    0.2846 H   0  0  0  0  0  0  0  0  0  0  0  0
   -4.2322    0.9453   -0.6215 H   0  0  0  0  0  0  0  0  0  0  0  0
    1.9533   -0.3900   -2.2644 H   0  0  0  0  0  0  0  0  0  0  0  0
    6.1670    0.3535    1.0609 H   0  0  0  0  0  0  0  0  0  0  0  0
    4.9683   -1.3000   -2.3872 H   0  0  0  0  0  0  0  0  0  0  0  0
    4.9292    0.4277   -2.7401 H   0  0  0  0  0  0  0  0  0  0  0  0
    4.4955   -0.1189    3.1080 H   0  0  0  0  0  0  0  0  0  0  0  0
    3.0381    0.8222    3.4476 H   0  0  0  0  0  0  0  0  0  0  0  0
    4.4418    1.6066    2.7193 H   0  0  0  0  0  0  0  0  0  0  0  0
    1.2280    0.4451    1.8920 H   0  0  0  0  0  0  0  0  0  0  0  0
  1  2  1  0
  1 26  1  0
  1 27  1  0
  1 28  1  0
  2  3  2  0
  2 14  1  0
  3  4  1  0
  4  5  2  0
  4  9  1  0
  5  6  1  0
  5 14  1  0
  6  7  2  0
  7  8  1  0
  7 10  1  0
  8  9  2  0
  8 29  1  0
  9 30  1  0
 10 11  1  0
 10 12  1  0
 10 13  1  0
 14 15  1  0
 15 16  2  0
 15 25  1  0
 16 17  1  0
 16 31  1  0
 17 18  2  0
 17 22  1  0
 18 19  1  0
 18 23  1  0
 19 20  1  0
 19 32  1  0
 20 21  2  0
 20 22  1  0
 22 33  1  0
 22 34  1  0
 23 24  1  0
 23 25  2  0
 24 35  1  0
 24 36  1  0
 24 37  1  0
 25 38  1  0
M  END
>  <group_name>  (1) 
JNS

>  <molecule_index>  (1) 
01658

>  <conformer_index>  (1) 
09

>  <method>  (1) 
b3lyp-d3bj

>  <basis>  (1) 
dzvp

>  <program>  (1) 
psi4

>  <initial_energy>  (1) 
-784167.3802032984 kilocalorie / mole

>  <final_energy>  (1) 
-784200.7455820409 kilocalorie / mole

$$$$
