JNS-02158-03
     RDKit          3D

 42 45  0  0  0  0  0  0  0  0999 V2000
   -0.8413    0.9728   -0.5436 C   0  0  0  0  0  0  0  0  0  0  0  0
    0.2588    1.6112   -1.4097 C   0  0  2  0  0  0  0  0  0  0  0  0
    1.1763    2.4649   -0.6070 N   0  0  0  0  0  0  0  0  0  0  0  0
    1.0073    3.9331   -0.4857 C   0  0  0  0  0  0  0  0  0  0  0  0
   -0.3252    4.4828   -1.0261 C   0  0  0  0  0  0  0  0  0  0  0  0
   -0.6467    3.7774   -2.2989 C   0  0  0  0  0  0  0  0  0  0  0  0
   -0.3352    2.4589   -2.4892 C   0  0  0  0  0  0  0  0  0  0  0  0
   -0.7145    2.0733   -3.7472 N   0  0  0  0  0  0  0  0  0  0  0  0
   -1.2385    3.0907   -4.3638 N   0  0  0  0  0  0  0  0  0  0  0  0
   -1.2068    4.1601   -3.4897 N   0  0  0  0  0  0  0  0  0  0  0  0
   -1.7374    5.4152   -3.8625 C   0  0  0  0  0  0  0  0  0  0  0  0
   -2.0393    6.2369   -2.8521 N   0  0  0  0  0  0  0  0  0  0  0  0
   -2.5414    7.4302   -3.1885 C   0  0  0  0  0  0  0  0  0  0  0  0
   -2.7452    7.7613   -4.5231 C   0  0  0  0  0  0  0  0  0  0  0  0
   -3.2601    8.9586   -4.8629 F   0  0  0  0  0  0  0  0  0  0  0  0
   -2.3998    6.8310   -5.5009 C   0  0  0  0  0  0  0  0  0  0  0  0
   -1.8796    5.6483   -5.1675 N   0  0  0  0  0  0  0  0  0  0  0  0
    2.3297    1.9850   -0.0636 C   0  0  0  0  0  0  0  0  0  0  0  0
    3.1452    2.6934    0.5268 O   0  0  0  0  0  0  0  0  0  0  0  0
    2.6293    0.5107   -0.2215 C   0  0  0  0  0  0  0  0  0  0  0  0
    3.4264    0.0341   -1.2664 C   0  0  0  0  0  0  0  0  0  0  0  0
    3.7494   -1.3234   -1.3116 C   0  0  0  0  0  0  0  0  0  0  0  0
    3.3326   -2.2076   -0.3972 N   0  0  0  0  0  0  0  0  0  0  0  0
    2.5819   -1.7623    0.6088 C   0  0  0  0  0  0  0  0  0  0  0  0
    2.2232   -0.4175    0.7302 C   0  0  0  0  0  0  0  0  0  0  0  0
    1.4673   -0.0117    1.7706 F   0  0  0  0  0  0  0  0  0  0  0  0
    2.1038   -2.7748    1.6405 C   0  0  0  0  0  0  0  0  0  0  0  0
    2.5624   -2.4645    2.8777 F   0  0  0  0  0  0  0  0  0  0  0  0
    2.5070   -4.0177    1.3509 F   0  0  0  0  0  0  0  0  0  0  0  0
    0.7466   -2.7843    1.7088 F   0  0  0  0  0  0  0  0  0  0  0  0
   -1.4847    0.3502   -1.1722 H   0  0  0  0  0  0  0  0  0  0  0  0
   -0.4147    0.3524    0.2469 H   0  0  0  0  0  0  0  0  0  0  0  0
   -1.4599    1.7452   -0.0766 H   0  0  0  0  0  0  0  0  0  0  0  0
    0.8485    0.8187   -1.8729 H   0  0  0  0  0  0  0  0  0  0  0  0
    1.8339    4.4079   -1.0245 H   0  0  0  0  0  0  0  0  0  0  0  0
    1.1235    4.2016    0.5664 H   0  0  0  0  0  0  0  0  0  0  0  0
   -1.1367    4.3237   -0.3067 H   0  0  0  0  0  0  0  0  0  0  0  0
   -0.2348    5.5611   -1.1580 H   0  0  0  0  0  0  0  0  0  0  0  0
   -2.7905    8.1252   -2.3892 H   0  0  0  0  0  0  0  0  0  0  0  0
   -2.5352    7.0495   -6.5586 H   0  0  0  0  0  0  0  0  0  0  0  0
    3.7883    0.7134   -2.0329 H   0  0  0  0  0  0  0  0  0  0  0  0
    4.3652   -1.7191   -2.1157 H   0  0  0  0  0  0  0  0  0  0  0  0
  1  2  1  0
  1 31  1  0
  1 32  1  0
  1 33  1  0
  2  3  1  0
  2  7  1  0
  2 34  1  6
  3  4  1  0
  3 18  1  0
  4  5  1  0
  4 35  1  0
  4 36  1  0
  5  6  1  0
  5 37  1  0
  5 38  1  0
  6  7  2  0
  6 10  1  0
  7  8  1  0
  8  9  2  0
  9 10  1  0
 10 11  1  0
 11 12  2  0
 11 17  1  0
 12 13  1  0
 13 14  2  0
 13 39  1  0
 14 15  1  0
 14 16  1  0
 16 17  2  0
 16 40  1  0
 18 19  2  0
 18 20  1  0
 20 21  2  0
 20 25  1  0
 21 22  1  0
 21 41  1  0
 22 23  2  0
 22 42  1  0
 23 24  1  0
 24 25  2  0
 24 27  1  0
 25 26  1  0
 27 28  1  0
 27 29  1  0
 27 30  1  0
M  END
>  <group_name>  (1) 
JNS

>  <molecule_index>  (1) 
02158

>  <conformer_index>  (1) 
03

>  <method>  (1) 
b3lyp-d3bj

>  <basis>  (1) 
dzvp

>  <program>  (1) 
psi4

>  <initial_energy>  (1) 
-1012134.5289204614 kilocalorie / mole

>  <final_energy>  (1) 
-1012176.9933622939 kilocalorie / mole

$$$$
