JNS-01614-04
     RDKit          3D

 39 42  0  0  0  0  0  0  0  0999 V2000
   -0.6753    0.7264    0.6340 C   0  0  0  0  0  0  0  0  0  0  0  0
    0.2248   -0.4471    1.0628 C   0  0  0  0  0  0  0  0  0  0  0  0
    1.6340   -0.2928    0.5826 C   0  0  0  0  0  0  0  0  0  0  0  0
    2.4972    0.5599    1.1042 N   0  0  0  0  0  0  0  0  0  0  0  0
    3.6708    0.3826    0.3934 C   0  0  0  0  0  0  0  0  0  0  0  0
    3.4952   -0.6242   -0.5941 C   0  0  0  0  0  0  0  0  0  0  0  0
    4.4032   -1.0704   -1.4470 N   0  0  0  0  0  0  0  0  0  0  0  0
    5.6005   -0.4761   -1.3330 C   0  0  0  0  0  0  0  0  0  0  0  0
    5.9085    0.5351   -0.4079 C   0  0  0  0  0  0  0  0  0  0  0  0
    4.9264    0.9837    0.4831 C   0  0  0  0  0  0  0  0  0  0  0  0
    6.6431   -0.9908   -2.3036 C   0  0  0  0  0  0  0  0  0  0  0  0
    7.8383   -0.3689   -2.1365 F   0  0  0  0  0  0  0  0  0  0  0  0
    6.2716   -0.7999   -3.5912 F   0  0  0  0  0  0  0  0  0  0  0  0
    6.8615   -2.3197   -2.1473 F   0  0  0  0  0  0  0  0  0  0  0  0
    2.1735   -1.0393   -0.4655 N   0  0  0  0  0  0  0  0  0  0  0  0
    1.5454   -2.0532   -1.2521 C   0  0  0  0  0  0  0  0  0  0  0  0
    0.4111   -1.7566   -1.9901 C   0  0  0  0  0  0  0  0  0  0  0  0
   -0.1744   -2.7989   -2.7344 C   0  0  0  0  0  0  0  0  0  0  0  0
    0.4215   -4.0854   -2.7290 C   0  0  0  0  0  0  0  0  0  0  0  0
   -0.3614   -4.8585   -3.5463 N   0  0  0  0  0  0  0  0  0  0  0  0
   -1.4093   -4.1658   -4.0743 N   0  0  0  0  0  0  0  0  0  0  0  0
   -1.3093   -2.9337   -3.5972 C   0  0  0  0  0  0  0  0  0  0  0  0
    1.5901   -4.3911   -1.9996 C   0  0  0  0  0  0  0  0  0  0  0  0
    2.2027   -5.7669   -2.0396 C   0  0  0  0  0  0  0  0  0  0  0  0
    2.1265   -3.3478   -1.2599 C   0  0  0  0  0  0  0  0  0  0  0  0
   -1.6838    0.5977    1.0389 H   0  0  0  0  0  0  0  0  0  0  0  0
   -0.2694    1.6718    1.0029 H   0  0  0  0  0  0  0  0  0  0  0  0
   -0.7545    0.7944   -0.4555 H   0  0  0  0  0  0  0  0  0  0  0  0
    0.2616   -0.4887    2.1556 H   0  0  0  0  0  0  0  0  0  0  0  0
   -0.1883   -1.3947    0.7088 H   0  0  0  0  0  0  0  0  0  0  0  0
    6.9058    0.9584   -0.3892 H   0  0  0  0  0  0  0  0  0  0  0  0
    5.1320    1.7615    1.2127 H   0  0  0  0  0  0  0  0  0  0  0  0
    0.0017   -0.7517   -1.9997 H   0  0  0  0  0  0  0  0  0  0  0  0
   -0.2461   -5.8308   -3.7949 H   0  0  0  0  0  0  0  0  0  0  0  0
   -2.0409   -2.1872   -3.8808 H   0  0  0  0  0  0  0  0  0  0  0  0
    1.4969   -6.5291   -1.6874 H   0  0  0  0  0  0  0  0  0  0  0  0
    3.0945   -5.8199   -1.4112 H   0  0  0  0  0  0  0  0  0  0  0  0
    2.4989   -6.0372   -3.0604 H   0  0  0  0  0  0  0  0  0  0  0  0
    3.0280   -3.5107   -0.6776 H   0  0  0  0  0  0  0  0  0  0  0  0
  1  2  1  0
  1 26  1  0
  1 27  1  0
  1 28  1  0
  2  3  1  0
  2 29  1  0
  2 30  1  0
  3  4  2  0
  3 15  1  0
  4  5  1  0
  5  6  2  0
  5 10  1  0
  6  7  1  0
  6 15  1  0
  7  8  2  0
  8  9  1  0
  8 11  1  0
  9 10  2  0
  9 31  1  0
 10 32  1  0
 11 12  1  0
 11 13  1  0
 11 14  1  0
 15 16  1  0
 16 17  2  0
 16 25  1  0
 17 18  1  0
 17 33  1  0
 18 19  2  0
 18 22  1  0
 19 20  1  0
 19 23  1  0
 20 21  1  0
 20 34  1  0
 21 22  2  0
 22 35  1  0
 23 24  1  0
 23 25  2  0
 24 36  1  0
 24 37  1  0
 24 38  1  0
 25 39  1  0
M  END
>  <group_name>  (1) 
JNS

>  <molecule_index>  (1) 
01614

>  <conformer_index>  (1) 
04

>  <method>  (1) 
b3lyp-d3bj

>  <basis>  (1) 
dzvp

>  <program>  (1) 
psi4

>  <initial_energy>  (1) 
-771657.063118924 kilocalorie / mole

>  <final_energy>  (1) 
-771705.3255448275 kilocalorie / mole

$$$$
