JNS-01596-08
     RDKit          3D

 37 41  0  0  0  0  0  0  0  0999 V2000
   -2.8796   -1.9380    3.0472 F   0  0  0  0  0  0  0  0  0  0  0  0
   -3.0366   -1.3024    1.8863 C   0  0  0  0  0  0  0  0  0  0  0  0
   -4.2670   -1.0537    1.3930 N   0  0  0  0  0  0  0  0  0  0  0  0
   -4.2556   -0.4003    0.1998 N   0  0  0  0  0  0  0  0  0  0  0  0
   -2.9388   -0.2403   -0.0532 C   0  0  0  0  0  0  0  0  0  0  0  0
   -2.1061   -0.7951    0.9841 C   0  0  0  0  0  0  0  0  0  0  0  0
   -0.6915   -0.7398    0.9102 C   0  0  0  0  0  0  0  0  0  0  0  0
   -0.1457   -0.1208   -0.1906 C   0  0  0  0  0  0  0  0  0  0  0  0
   -0.9630    0.4605   -1.2178 C   0  0  0  0  0  0  0  0  0  0  0  0
   -2.3346    0.3996   -1.1702 C   0  0  0  0  0  0  0  0  0  0  0  0
    1.2709    0.0082   -0.2974 N   0  0  0  0  0  0  0  0  0  0  0  0
    2.0843   -0.3105   -1.3845 C   0  0  0  0  0  0  0  0  0  0  0  0
    3.3532    0.0073   -1.1911 N   0  0  0  0  0  0  0  0  0  0  0  0
    3.4081    0.5567    0.0764 C   0  0  0  0  0  0  0  0  0  0  0  0
    2.1143    0.5599    0.6658 C   0  0  0  0  0  0  0  0  0  0  0  0
    1.7911    0.9902    1.8727 N   0  0  0  0  0  0  0  0  0  0  0  0
    2.8253    1.4739    2.5794 C   0  0  0  0  0  0  0  0  0  0  0  0
    4.1495    1.5350    2.1181 C   0  0  0  0  0  0  0  0  0  0  0  0
    4.4609    1.0671    0.8354 C   0  0  0  0  0  0  0  0  0  0  0  0
    2.4564    1.9616    3.9645 C   0  0  0  0  0  0  0  0  0  0  0  0
    3.5401    2.4192    4.6425 F   0  0  0  0  0  0  0  0  0  0  0  0
    1.5576    2.9731    3.9206 F   0  0  0  0  0  0  0  0  0  0  0  0
    1.9058    0.9754    4.7138 F   0  0  0  0  0  0  0  0  0  0  0  0
    1.5552   -0.9392   -2.6046 C   0  0  0  0  0  0  0  0  0  0  0  0
    2.5327   -1.5865   -3.5685 C   0  0  0  0  0  0  0  0  0  0  0  0
    1.8749   -0.2941   -3.9554 C   0  0  0  0  0  0  0  0  0  0  0  0
   -5.1513   -1.2980    1.8234 H   0  0  0  0  0  0  0  0  0  0  0  0
   -0.0623   -1.1482    1.6930 H   0  0  0  0  0  0  0  0  0  0  0  0
   -0.4692    0.9668   -2.0415 H   0  0  0  0  0  0  0  0  0  0  0  0
   -2.9508    0.8418   -1.9471 H   0  0  0  0  0  0  0  0  0  0  0  0
    4.9225    1.9404    2.7603 H   0  0  0  0  0  0  0  0  0  0  0  0
    5.4756    1.0969    0.4495 H   0  0  0  0  0  0  0  0  0  0  0  0
    0.5769   -1.3956   -2.5053 H   0  0  0  0  0  0  0  0  0  0  0  0
    2.2045   -2.5008   -4.0531 H   0  0  0  0  0  0  0  0  0  0  0  0
    3.5774   -1.5515   -3.2799 H   0  0  0  0  0  0  0  0  0  0  0  0
    1.0884   -0.3069   -4.7042 H   0  0  0  0  0  0  0  0  0  0  0  0
    2.4804    0.6060   -3.9250 H   0  0  0  0  0  0  0  0  0  0  0  0
  1  2  1  0
  2  3  1  0
  2  6  2  0
  3  4  1  0
  3 27  1  0
  4  5  2  0
  5  6  1  0
  5 10  1  0
  6  7  1  0
  7  8  2  0
  7 28  1  0
  8  9  1  0
  8 11  1  0
  9 10  2  0
  9 29  1  0
 10 30  1  0
 11 12  1  0
 11 15  1  0
 12 13  2  0
 12 24  1  0
 13 14  1  0
 14 15  2  0
 14 19  1  0
 15 16  1  0
 16 17  2  0
 17 18  1  0
 17 20  1  0
 18 19  2  0
 18 31  1  0
 19 32  1  0
 20 21  1  0
 20 22  1  0
 20 23  1  0
 24 25  1  0
 24 26  1  0
 24 33  1  0
 25 26  1  0
 25 34  1  0
 25 35  1  0
 26 36  1  0
 26 37  1  0
M  END
>  <group_name>  (1) 
JNS

>  <molecule_index>  (1) 
01596

>  <conformer_index>  (1) 
08

>  <method>  (1) 
b3lyp-d3bj

>  <basis>  (1) 
dzvp

>  <program>  (1) 
psi4

>  <initial_energy>  (1) 
-833153.3721079414 kilocalorie / mole

>  <final_energy>  (1) 
-833195.8236468035 kilocalorie / mole

$$$$
