JNS-01474-01
     RDKit          3D

 39 42  0  0  0  0  0  0  0  0999 V2000
   -2.1034    1.7850    0.1238 C   0  0  0  0  0  0  0  0  0  0  0  0
   -0.5762    1.6698    0.1338 C   0  0  0  0  0  0  0  0  0  0  0  0
   -0.0991    0.2664   -0.1902 C   0  0  0  0  0  0  0  0  0  0  0  0
   -0.6487   -0.6370    0.7119 F   0  0  0  0  0  0  0  0  0  0  0  0
   -0.5670   -0.1193   -1.4326 F   0  0  0  0  0  0  0  0  0  0  0  0
    1.4032    0.1030   -0.1718 C   0  0  0  0  0  0  0  0  0  0  0  0
    2.2111    1.0235    0.3127 N   0  0  0  0  0  0  0  0  0  0  0  0
    3.4848    0.5143    0.1328 C   0  0  0  0  0  0  0  0  0  0  0  0
    3.4126   -0.7607   -0.4874 C   0  0  0  0  0  0  0  0  0  0  0  0
    4.4312   -1.5382   -0.8247 N   0  0  0  0  0  0  0  0  0  0  0  0
    5.6307   -1.0257   -0.5244 C   0  0  0  0  0  0  0  0  0  0  0  0
    5.8439    0.2203    0.0942 C   0  0  0  0  0  0  0  0  0  0  0  0
    4.7501    1.0199    0.4361 C   0  0  0  0  0  0  0  0  0  0  0  0
    6.8007   -1.9075   -0.9195 C   0  0  0  0  0  0  0  0  0  0  0  0
    7.9882   -1.3471   -0.5757 F   0  0  0  0  0  0  0  0  0  0  0  0
    6.7408   -3.1178   -0.3215 F   0  0  0  0  0  0  0  0  0  0  0  0
    6.8323   -2.1211   -2.2561 F   0  0  0  0  0  0  0  0  0  0  0  0
    2.0583   -1.0143   -0.6704 N   0  0  0  0  0  0  0  0  0  0  0  0
    1.5195   -2.2021   -1.2692 C   0  0  0  0  0  0  0  0  0  0  0  0
    0.7540   -3.0732   -0.5120 C   0  0  0  0  0  0  0  0  0  0  0  0
    0.2520   -4.2234   -1.1470 C   0  0  0  0  0  0  0  0  0  0  0  0
    0.5577   -4.4668   -2.5125 C   0  0  0  0  0  0  0  0  0  0  0  0
   -0.0614   -5.6477   -2.8231 N   0  0  0  0  0  0  0  0  0  0  0  0
   -0.7375   -6.1787   -1.7649 N   0  0  0  0  0  0  0  0  0  0  0  0
   -0.5583   -5.3382   -0.7576 C   0  0  0  0  0  0  0  0  0  0  0  0
    1.3513   -3.5872   -3.2696 C   0  0  0  0  0  0  0  0  0  0  0  0
    1.8229   -2.4529   -2.6299 C   0  0  0  0  0  0  0  0  0  0  0  0
   -2.3951    2.8129    0.3576 H   0  0  0  0  0  0  0  0  0  0  0  0
   -2.5167    1.5304   -0.8557 H   0  0  0  0  0  0  0  0  0  0  0  0
   -2.5574    1.1266    0.8690 H   0  0  0  0  0  0  0  0  0  0  0  0
   -0.1617    1.9415    1.1072 H   0  0  0  0  0  0  0  0  0  0  0  0
   -0.1252    2.3449   -0.5985 H   0  0  0  0  0  0  0  0  0  0  0  0
    6.8556    0.5502    0.2986 H   0  0  0  0  0  0  0  0  0  0  0  0
    4.8763    1.9877    0.9123 H   0  0  0  0  0  0  0  0  0  0  0  0
    0.5457   -2.8626    0.5313 H   0  0  0  0  0  0  0  0  0  0  0  0
   -0.0661   -6.1442   -3.7031 H   0  0  0  0  0  0  0  0  0  0  0  0
   -1.0082   -5.5481    0.2048 H   0  0  0  0  0  0  0  0  0  0  0  0
    1.5889   -3.7794   -4.3118 H   0  0  0  0  0  0  0  0  0  0  0  0
    2.4402   -1.7407   -3.1675 H   0  0  0  0  0  0  0  0  0  0  0  0
  1  2  1  0
  1 28  1  0
  1 29  1  0
  1 30  1  0
  2  3  1  0
  2 31  1  0
  2 32  1  0
  3  4  1  0
  3  5  1  0
  3  6  1  0
  6  7  2  0
  6 18  1  0
  7  8  1  0
  8  9  2  0
  8 13  1  0
  9 10  1  0
  9 18  1  0
 10 11  2  0
 11 12  1  0
 11 14  1  0
 12 13  2  0
 12 33  1  0
 13 34  1  0
 14 15  1  0
 14 16  1  0
 14 17  1  0
 18 19  1  0
 19 20  2  0
 19 27  1  0
 20 21  1  0
 20 35  1  0
 21 22  2  0
 21 25  1  0
 22 23  1  0
 22 26  1  0
 23 24  1  0
 23 36  1  0
 24 25  2  0
 25 37  1  0
 26 27  2  0
 26 38  1  0
 27 39  1  0
M  END
>  <group_name>  (1) 
JNS

>  <molecule_index>  (1) 
01474

>  <conformer_index>  (1) 
01

>  <method>  (1) 
b3lyp-d3bj

>  <basis>  (1) 
dzvp

>  <program>  (1) 
psi4

>  <initial_energy>  (1) 
-896270.9944247706 kilocalorie / mole

>  <final_energy>  (1) 
-896278.3168472325 kilocalorie / mole

$$$$
