JNS-01242-02
     RDKit          3D

 41 45  0  0  0  0  0  0  0  0999 V2000
    0.2211    4.9592   -0.6902 F   0  0  0  0  0  0  0  0  0  0  0  0
   -0.8670    4.6130    0.0368 C   0  0  0  0  0  0  0  0  0  0  0  0
   -1.8298    5.5350   -0.2206 F   0  0  0  0  0  0  0  0  0  0  0  0
   -0.5315    4.7416    1.3419 F   0  0  0  0  0  0  0  0  0  0  0  0
   -1.3351    3.2082   -0.2860 C   0  0  0  0  0  0  0  0  0  0  0  0
   -2.6323    2.9720   -0.7721 C   0  0  0  0  0  0  0  0  0  0  0  0
   -3.0395    1.6639   -1.0585 C   0  0  0  0  0  0  0  0  0  0  0  0
   -2.1053    0.6517   -0.8370 C   0  0  0  0  0  0  0  0  0  0  0  0
   -2.1563   -0.7213   -1.0020 N   0  0  0  0  0  0  0  0  0  0  0  0
   -0.9714   -1.1744   -0.6302 C   0  0  0  0  0  0  0  0  0  0  0  0
   -0.6308   -2.6295   -0.6842 C   0  0  2  0  0  0  0  0  0  0  0  0
   -0.0881   -3.3031    0.5930 C   0  0  0  0  0  0  0  0  0  0  0  0
    0.4855   -4.5957    0.0116 C   0  0  0  0  0  0  0  0  0  0  0  0
    1.0430   -4.2364   -1.2621 O   0  0  0  0  0  0  0  0  0  0  0  0
    0.4341   -3.0289   -1.7358 C   0  0  0  0  0  0  0  0  0  0  0  0
   -0.1120   -0.1518   -0.2185 N   0  0  0  0  0  0  0  0  0  0  0  0
   -0.8304    1.0328   -0.3439 C   0  0  0  0  0  0  0  0  0  0  0  0
   -0.4157    2.2572   -0.0632 N   0  0  0  0  0  0  0  0  0  0  0  0
    1.2285   -0.2217    0.2802 C   0  0  0  0  0  0  0  0  0  0  0  0
    1.4357   -0.2888    1.6678 C   0  0  0  0  0  0  0  0  0  0  0  0
    2.7219   -0.3429    2.2114 C   0  0  0  0  0  0  0  0  0  0  0  0
    3.7994   -0.3191    1.3233 C   0  0  0  0  0  0  0  0  0  0  0  0
    5.1829   -0.3563    1.5460 N   0  0  0  0  0  0  0  0  0  0  0  0
    5.6817   -0.2867    0.3576 C   0  0  0  0  0  0  0  0  0  0  0  0
    6.9720   -0.2879    0.0319 O   0  0  0  0  0  0  0  0  0  0  0  0
    4.7902   -0.2042   -0.6917 O   0  0  0  0  0  0  0  0  0  0  0  0
    3.5548   -0.2277   -0.0575 C   0  0  0  0  0  0  0  0  0  0  0  0
    2.2965   -0.1667   -0.6255 C   0  0  0  0  0  0  0  0  0  0  0  0
   -3.3080    3.8059   -0.9212 H   0  0  0  0  0  0  0  0  0  0  0  0
   -4.0346    1.4461   -1.4350 H   0  0  0  0  0  0  0  0  0  0  0  0
   -1.5730   -3.1152   -0.9515 H   0  0  0  0  0  0  0  0  0  0  0  0
    0.7072   -2.7124    1.0495 H   0  0  0  0  0  0  0  0  0  0  0  0
   -0.8712   -3.4757    1.3361 H   0  0  0  0  0  0  0  0  0  0  0  0
   -0.3013   -5.3514   -0.1261 H   0  0  0  0  0  0  0  0  0  0  0  0
    1.2841   -5.0290    0.6199 H   0  0  0  0  0  0  0  0  0  0  0  0
   -0.0215   -3.2035   -2.7162 H   0  0  0  0  0  0  0  0  0  0  0  0
    1.2119   -2.2664   -1.8420 H   0  0  0  0  0  0  0  0  0  0  0  0
    0.5677   -0.2975    2.3199 H   0  0  0  0  0  0  0  0  0  0  0  0
    2.8819   -0.3956    3.2834 H   0  0  0  0  0  0  0  0  0  0  0  0
    7.0554   -0.2200   -0.9351 H   0  0  0  0  0  0  0  0  0  0  0  0
    2.1334   -0.0690   -1.6932 H   0  0  0  0  0  0  0  0  0  0  0  0
  1  2  1  0
  2  3  1  0
  2  4  1  0
  2  5  1  0
  5  6  2  0
  5 18  1  0
  6  7  1  0
  6 29  1  0
  7  8  2  0
  7 30  1  0
  8  9  1  0
  8 17  1  0
  9 10  2  0
 10 11  1  0
 10 16  1  0
 11 12  1  0
 11 15  1  0
 11 31  1  6
 12 13  1  0
 12 32  1  0
 12 33  1  0
 13 14  1  0
 13 34  1  0
 13 35  1  0
 14 15  1  0
 15 36  1  0
 15 37  1  0
 16 17  1  0
 16 19  1  0
 17 18  2  0
 19 20  2  0
 19 28  1  0
 20 21  1  0
 20 38  1  0
 21 22  2  0
 21 39  1  0
 22 23  1  0
 22 27  1  0
 23 24  2  0
 24 25  1  0
 24 26  1  0
 25 40  1  0
 26 27  1  0
 27 28  2  0
 28 41  1  0
M  END
>  <group_name>  (1) 
JNS

>  <molecule_index>  (1) 
01242

>  <conformer_index>  (1) 
02

>  <method>  (1) 
b3lyp-d3bj

>  <basis>  (1) 
dzvp

>  <program>  (1) 
psi4

>  <initial_energy>  (1) 
-902437.6270142375 kilocalorie / mole

>  <final_energy>  (1) 
-902508.6857786836 kilocalorie / mole

$$$$
