JNS-00690-00
     RDKit          3D

 38 42  0  0  0  0  0  0  0  0999 V2000
   -0.2734   -2.4582    0.1375 O   0  0  0  0  0  0  0  0  0  0  0  0
   -0.0127   -1.0885   -0.1215 C   0  0  0  0  0  0  0  0  0  0  0  0
   -1.0890   -0.1385    0.3163 C   0  0  0  0  0  0  0  0  0  0  0  0
   -0.8498   -0.3895   -1.1625 C   0  0  0  0  0  0  0  0  0  0  0  0
    1.4235   -0.7221    0.0084 C   0  0  0  0  0  0  0  0  0  0  0  0
    2.2771   -0.7597   -0.9993 N   0  0  0  0  0  0  0  0  0  0  0  0
    3.4956   -0.3867   -0.4615 C   0  0  0  0  0  0  0  0  0  0  0  0
    3.3527   -0.1137    0.9259 C   0  0  0  0  0  0  0  0  0  0  0  0
    4.3063    0.2816    1.7563 N   0  0  0  0  0  0  0  0  0  0  0  0
    5.5107    0.4177    1.1859 C   0  0  0  0  0  0  0  0  0  0  0  0
    5.7900    0.1770   -0.1708 C   0  0  0  0  0  0  0  0  0  0  0  0
    4.7632   -0.2359   -1.0254 C   0  0  0  0  0  0  0  0  0  0  0  0
    6.6010    0.8677    2.1384 C   0  0  0  0  0  0  0  0  0  0  0  0
    6.8059   -0.0329    3.1273 F   0  0  0  0  0  0  0  0  0  0  0  0
    6.2935    2.0465    2.7296 F   0  0  0  0  0  0  0  0  0  0  0  0
    7.7871    1.0378    1.5002 F   0  0  0  0  0  0  0  0  0  0  0  0
    2.0113   -0.3429    1.2140 N   0  0  0  0  0  0  0  0  0  0  0  0
    1.3929   -0.2060    2.4965 C   0  0  0  0  0  0  0  0  0  0  0  0
    1.6234    0.9444    3.2387 C   0  0  0  0  0  0  0  0  0  0  0  0
    1.0147    1.0449    4.5021 C   0  0  0  0  0  0  0  0  0  0  0  0
    0.1850   -0.0067    4.9741 C   0  0  0  0  0  0  0  0  0  0  0  0
   -0.2548    0.3961    6.2072 N   0  0  0  0  0  0  0  0  0  0  0  0
    0.2321    1.6192    6.5622 N   0  0  0  0  0  0  0  0  0  0  0  0
    0.9907    2.0183    5.5529 C   0  0  0  0  0  0  0  0  0  0  0  0
   -0.0415   -1.1705    4.2199 C   0  0  0  0  0  0  0  0  0  0  0  0
    0.5801   -1.2608    2.9844 C   0  0  0  0  0  0  0  0  0  0  0  0
    0.1306   -2.9655   -0.5872 H   0  0  0  0  0  0  0  0  0  0  0  0
   -0.7887    0.8144    0.7400 H   0  0  0  0  0  0  0  0  0  0  0  0
   -1.9601   -0.5947    0.7747 H   0  0  0  0  0  0  0  0  0  0  0  0
   -1.5730   -1.0053   -1.6879 H   0  0  0  0  0  0  0  0  0  0  0  0
   -0.3772    0.3869   -1.7550 H   0  0  0  0  0  0  0  0  0  0  0  0
    6.7978    0.3165   -0.5435 H   0  0  0  0  0  0  0  0  0  0  0  0
    4.9410   -0.4287   -2.0794 H   0  0  0  0  0  0  0  0  0  0  0  0
    2.2644    1.7310    2.8559 H   0  0  0  0  0  0  0  0  0  0  0  0
   -0.8531   -0.0969    6.8550 H   0  0  0  0  0  0  0  0  0  0  0  0
    1.4947    2.9754    5.6039 H   0  0  0  0  0  0  0  0  0  0  0  0
   -0.6683   -1.9793    4.5846 H   0  0  0  0  0  0  0  0  0  0  0  0
    0.4378   -2.1428    2.3697 H   0  0  0  0  0  0  0  0  0  0  0  0
  1  2  1  0
  1 27  1  0
  2  3  1  0
  2  4  1  0
  2  5  1  0
  3  4  1  0
  3 28  1  0
  3 29  1  0
  4 30  1  0
  4 31  1  0
  5  6  2  0
  5 17  1  0
  6  7  1  0
  7  8  2  0
  7 12  1  0
  8  9  1  0
  8 17  1  0
  9 10  2  0
 10 11  1  0
 10 13  1  0
 11 12  2  0
 11 32  1  0
 12 33  1  0
 13 14  1  0
 13 15  1  0
 13 16  1  0
 17 18  1  0
 18 19  2  0
 18 26  1  0
 19 20  1  0
 19 34  1  0
 20 21  2  0
 20 24  1  0
 21 22  1  0
 21 25  1  0
 22 23  1  0
 22 35  1  0
 23 24  2  0
 24 36  1  0
 25 26  2  0
 25 37  1  0
 26 38  1  0
M  END
>  <group_name>  (1) 
JNS

>  <molecule_index>  (1) 
00690

>  <conformer_index>  (1) 
00

>  <method>  (1) 
b3lyp-d3bj

>  <basis>  (1) 
dzvp

>  <program>  (1) 
psi4

>  <initial_energy>  (1) 
-818061.7122939804 kilocalorie / mole

>  <final_energy>  (1) 
-818125.7910278721 kilocalorie / mole

$$$$
