JNS-01448-08
     RDKit          3D

 43 47  0  0  0  0  0  0  0  0999 V2000
   -1.1707   -3.4309    1.2961 F   0  0  0  0  0  0  0  0  0  0  0  0
   -0.2198   -2.6246    0.8136 C   0  0  0  0  0  0  0  0  0  0  0  0
    0.7953   -2.5808    1.7074 F   0  0  0  0  0  0  0  0  0  0  0  0
    0.2716   -3.1971   -0.3196 F   0  0  0  0  0  0  0  0  0  0  0  0
   -0.7676   -1.2436    0.5382 C   0  0  0  0  0  0  0  0  0  0  0  0
   -2.0537   -0.9783    0.5340 N   0  0  0  0  0  0  0  0  0  0  0  0
   -2.1284    0.3759    0.2580 C   0  0  0  0  0  0  0  0  0  0  0  0
   -0.8247    0.9135    0.0964 C   0  0  0  0  0  0  0  0  0  0  0  0
   -0.5116    2.1738   -0.1661 N   0  0  0  0  0  0  0  0  0  0  0  0
   -1.5701    2.9830   -0.2849 C   0  0  0  0  0  0  0  0  0  0  0  0
   -2.9135    2.5814   -0.1517 C   0  0  0  0  0  0  0  0  0  0  0  0
   -3.2130    1.2463    0.1272 C   0  0  0  0  0  0  0  0  0  0  0  0
   -1.2173    4.4285   -0.5870 C   0  0  0  0  0  0  0  0  0  0  0  0
   -0.5684    4.5456   -1.7672 F   0  0  0  0  0  0  0  0  0  0  0  0
   -2.3250    5.2086   -0.6577 F   0  0  0  0  0  0  0  0  0  0  0  0
   -0.4165    4.9542    0.3673 F   0  0  0  0  0  0  0  0  0  0  0  0
    0.0481   -0.1538    0.2774 N   0  0  0  0  0  0  0  0  0  0  0  0
    1.4791   -0.0848    0.1901 C   0  0  0  0  0  0  0  0  0  0  0  0
    2.1707    0.6874    1.1096 C   0  0  0  0  0  0  0  0  0  0  0  0
    3.5682    0.7479    0.9782 C   0  0  0  0  0  0  0  0  0  0  0  0
    4.2143    0.0341   -0.0660 C   0  0  0  0  0  0  0  0  0  0  0  0
    5.5531    0.2634    0.1067 N   0  0  0  0  0  0  0  0  0  0  0  0
    5.8136    1.0574    1.1829 N   0  0  0  0  0  0  0  0  0  0  0  0
    4.6372    1.3621    1.7077 C   0  0  0  0  0  0  0  0  0  0  0  0
    3.5095   -0.7401   -1.0149 C   0  0  0  0  0  0  0  0  0  0  0  0
    2.1268   -0.7732   -0.8595 C   0  0  0  0  0  0  0  0  0  0  0  0
    4.1939   -1.4777   -2.1008 C   0  0  0  0  0  0  0  0  0  0  0  0
    5.2193   -0.8729   -2.8500 C   0  0  0  0  0  0  0  0  0  0  0  0
    5.8589   -1.5722   -3.8761 C   0  0  0  0  0  0  0  0  0  0  0  0
    5.4852   -2.8877   -4.1703 C   0  0  0  0  0  0  0  0  0  0  0  0
    4.4633   -3.4964   -3.4336 C   0  0  0  0  0  0  0  0  0  0  0  0
    3.8240   -2.7987   -2.4069 C   0  0  0  0  0  0  0  0  0  0  0  0
   -3.7040    3.3137   -0.2645 H   0  0  0  0  0  0  0  0  0  0  0  0
   -4.2360    0.8999    0.2393 H   0  0  0  0  0  0  0  0  0  0  0  0
    1.6447    1.2185    1.8963 H   0  0  0  0  0  0  0  0  0  0  0  0
    6.3244   -0.1373   -0.4092 H   0  0  0  0  0  0  0  0  0  0  0  0
    4.5848    1.9996    2.5814 H   0  0  0  0  0  0  0  0  0  0  0  0
    1.5244   -1.3219   -1.5755 H   0  0  0  0  0  0  0  0  0  0  0  0
    5.4848    0.1644   -2.6610 H   0  0  0  0  0  0  0  0  0  0  0  0
    6.6404   -1.0856   -4.4539 H   0  0  0  0  0  0  0  0  0  0  0  0
    5.9837   -3.4324   -4.9676 H   0  0  0  0  0  0  0  0  0  0  0  0
    4.1695   -4.5196   -3.6529 H   0  0  0  0  0  0  0  0  0  0  0  0
    3.0474   -3.2848   -1.8223 H   0  0  0  0  0  0  0  0  0  0  0  0
  1  2  1  0
  2  3  1  0
  2  4  1  0
  2  5  1  0
  5  6  2  0
  5 17  1  0
  6  7  1  0
  7  8  2  0
  7 12  1  0
  8  9  1  0
  8 17  1  0
  9 10  2  0
 10 11  1  0
 10 13  1  0
 11 12  2  0
 11 33  1  0
 12 34  1  0
 13 14  1  0
 13 15  1  0
 13 16  1  0
 17 18  1  0
 18 19  2  0
 18 26  1  0
 19 20  1  0
 19 35  1  0
 20 21  2  0
 20 24  1  0
 21 22  1  0
 21 25  1  0
 22 23  1  0
 22 36  1  0
 23 24  2  0
 24 37  1  0
 25 26  2  0
 25 27  1  0
 26 38  1  0
 27 28  2  0
 27 32  1  0
 28 29  1  0
 28 39  1  0
 29 30  2  0
 29 40  1  0
 30 31  1  0
 30 41  1  0
 31 32  2  0
 31 42  1  0
 32 43  1  0
M  END
>  <group_name>  (1) 
JNS

>  <molecule_index>  (1) 
01448

>  <conformer_index>  (1) 
08

>  <method>  (1) 
b3lyp-d3bj

>  <basis>  (1) 
dzvp

>  <program>  (1) 
psi4

>  <initial_energy>  (1) 
-1054225.8246267305 kilocalorie / mole

>  <final_energy>  (1) 
-1054230.9114376444 kilocalorie / mole

$$$$
