JNS-02240-01
     RDKit          3D

 51 55  0  0  0  0  0  0  0  0999 V2000
    1.6189    5.4474    3.8240 C   0  0  0  0  0  0  0  0  0  0  0  0
    0.5876    4.5468    3.2030 C   0  0  0  0  0  0  0  0  0  0  0  0
   -0.5352    4.3094    3.8984 N   0  0  0  0  0  0  0  0  0  0  0  0
   -1.4325    3.4771    3.3512 C   0  0  0  0  0  0  0  0  0  0  0  0
   -2.6768    3.2328    4.1456 C   0  0  0  0  0  0  0  0  0  0  0  0
   -3.5709    4.2286    4.2268 N   0  0  0  0  0  0  0  0  0  0  0  0
   -4.6658    3.9846    4.9557 C   0  0  0  0  0  0  0  0  0  0  0  0
   -4.8728    2.7593    5.5985 C   0  0  0  0  0  0  0  0  0  0  0  0
   -3.9847    1.7607    5.5167 N   0  0  0  0  0  0  0  0  0  0  0  0
   -2.8906    2.0041    4.7873 C   0  0  0  0  0  0  0  0  0  0  0  0
   -1.2344    2.8610    2.1087 C   0  0  0  0  0  0  0  0  0  0  0  0
   -2.2370    1.9130    1.4821 C   0  0  0  0  0  0  0  0  0  0  0  0
   -1.9155    1.5511    0.0164 C   0  0  1  0  0  0  0  0  0  0  0  0
   -2.3854    2.5709   -1.0336 C   0  0  0  0  0  0  0  0  0  0  0  0
   -1.6061    3.8934   -0.9915 C   0  0  0  0  0  0  0  0  0  0  0  0
   -0.0942    3.6339   -0.9930 C   0  0  0  0  0  0  0  0  0  0  0  0
    0.2904    2.6206    0.1046 C   0  0  2  0  0  0  0  0  0  0  0  0
   -0.4575    1.3753   -0.0974 N   0  0  0  0  0  0  0  0  0  0  0  0
    0.0758    0.1247   -0.0234 C   0  0  0  0  0  0  0  0  0  0  0  0
   -0.5853   -0.9123   -0.0582 O   0  0  0  0  0  0  0  0  0  0  0  0
    1.5829    0.0306    0.0618 C   0  0  0  0  0  0  0  0  0  0  0  0
    2.3381   -0.1755   -1.0937 C   0  0  0  0  0  0  0  0  0  0  0  0
    3.7193   -0.3287   -0.9785 C   0  0  0  0  0  0  0  0  0  0  0  0
    4.3594   -0.2896    0.1947 N   0  0  0  0  0  0  0  0  0  0  0  0
    3.6471   -0.1029    1.3048 C   0  0  0  0  0  0  0  0  0  0  0  0
    2.2521    0.0600    1.2902 C   0  0  0  0  0  0  0  0  0  0  0  0
    1.3307    0.3027    2.7539 Cl  0  0  0  0  0  0  0  0  0  0  0  0
    4.4474   -0.0702    2.6065 C   0  0  0  0  0  0  0  0  0  0  0  0
    4.0412   -1.0460    3.4554 F   0  0  0  0  0  0  0  0  0  0  0  0
    5.7579   -0.2400    2.3912 F   0  0  0  0  0  0  0  0  0  0  0  0
    4.2879    1.1158    3.2469 F   0  0  0  0  0  0  0  0  0  0  0  0
   -0.0269    3.1822    1.4752 C   0  0  0  0  0  0  0  0  0  0  0  0
    0.8713    4.0187    2.0004 N   0  0  0  0  0  0  0  0  0  0  0  0
    2.4006    4.8404    4.2953 H   0  0  0  0  0  0  0  0  0  0  0  0
    1.1642    6.0774    4.5898 H   0  0  0  0  0  0  0  0  0  0  0  0
    2.0987    6.0628    3.0595 H   0  0  0  0  0  0  0  0  0  0  0  0
   -5.3989    4.7857    5.0292 H   0  0  0  0  0  0  0  0  0  0  0  0
   -5.7701    2.5794    6.1873 H   0  0  0  0  0  0  0  0  0  0  0  0
   -2.1554    1.2045    4.7168 H   0  0  0  0  0  0  0  0  0  0  0  0
   -2.2521    0.9821    2.0600 H   0  0  0  0  0  0  0  0  0  0  0  0
   -3.2462    2.3333    1.5479 H   0  0  0  0  0  0  0  0  0  0  0  0
   -2.3663    0.5839   -0.2043 H   0  0  0  0  0  0  0  0  0  0  0  0
   -3.4575    2.7504   -0.8999 H   0  0  0  0  0  0  0  0  0  0  0  0
   -2.2589    2.1078   -2.0196 H   0  0  0  0  0  0  0  0  0  0  0  0
   -1.8797    4.5133   -1.8515 H   0  0  0  0  0  0  0  0  0  0  0  0
   -1.8814    4.4643   -0.0978 H   0  0  0  0  0  0  0  0  0  0  0  0
    0.4651    4.5586   -0.8247 H   0  0  0  0  0  0  0  0  0  0  0  0
    0.2197    3.2214   -1.9592 H   0  0  0  0  0  0  0  0  0  0  0  0
    1.3606    2.4247    0.0548 H   0  0  0  0  0  0  0  0  0  0  0  0
    1.8525   -0.2194   -2.0643 H   0  0  0  0  0  0  0  0  0  0  0  0
    4.3383   -0.4883   -1.8585 H   0  0  0  0  0  0  0  0  0  0  0  0
  1  2  1  0
  1 34  1  0
  1 35  1  0
  1 36  1  0
  2  3  2  0
  2 33  1  0
  3  4  1  0
  4  5  1  0
  4 11  2  0
  5  6  2  0
  5 10  1  0
  6  7  1  0
  7  8  2  0
  7 37  1  0
  8  9  1  0
  8 38  1  0
  9 10  2  0
 10 39  1  0
 11 12  1  0
 11 32  1  0
 12 13  1  0
 12 40  1  0
 12 41  1  0
 13 14  1  0
 13 18  1  0
 13 42  1  6
 14 15  1  0
 14 43  1  0
 14 44  1  0
 15 16  1  0
 15 45  1  0
 15 46  1  0
 16 17  1  0
 16 47  1  0
 16 48  1  0
 17 18  1  0
 17 32  1  0
 17 49  1  1
 18 19  1  0
 19 20  2  0
 19 21  1  0
 21 22  2  0
 21 26  1  0
 22 23  1  0
 22 50  1  0
 23 24  2  0
 23 51  1  0
 24 25  1  0
 25 26  2  0
 25 28  1  0
 26 27  1  0
 28 29  1  0
 28 30  1  0
 28 31  1  0
 32 33  2  0
M  END
>  <group_name>  (1) 
JNS

>  <molecule_index>  (1) 
02240

>  <conformer_index>  (1) 
01

>  <method>  (1) 
b3lyp-d3bj

>  <basis>  (1) 
dzvp

>  <program>  (1) 
psi4

>  <initial_energy>  (1) 
-1262940.8248202028 kilocalorie / mole

>  <final_energy>  (1) 
-1263140.0987797622 kilocalorie / mole

$$$$
