JNS-01589-06
     RDKit          3D

 43 47  0  0  0  0  0  0  0  0999 V2000
   -2.7445    1.5728    2.1062 C   0  0  0  0  0  0  0  0  0  0  0  0
   -2.0187    0.8084    1.0332 C   0  0  0  0  0  0  0  0  0  0  0  0
   -2.7426    0.2030   -0.0378 C   0  0  0  0  0  0  0  0  0  0  0  0
   -4.0797    0.2195   -0.2343 N   0  0  0  0  0  0  0  0  0  0  0  0
   -4.2369   -0.4696   -1.3851 N   0  0  0  0  0  0  0  0  0  0  0  0
   -3.0888   -0.9283   -1.9438 C   0  0  0  0  0  0  0  0  0  0  0  0
   -2.0632   -0.5105   -1.0850 C   0  0  0  0  0  0  0  0  0  0  0  0
   -0.6524   -0.6392   -1.0721 C   0  0  0  0  0  0  0  0  0  0  0  0
    0.0447   -0.0716   -0.0176 C   0  0  0  0  0  0  0  0  0  0  0  0
   -0.6510    0.6567    1.0125 C   0  0  0  0  0  0  0  0  0  0  0  0
    1.5051   -0.1403    0.0695 C   0  0  0  0  0  0  0  0  0  0  0  0
    2.4273    0.8672    0.4402 C   0  0  0  0  0  0  0  0  0  0  0  0
    2.2179    2.1400    0.8430 N   0  0  0  0  0  0  0  0  0  0  0  0
    3.3091    2.8333    1.1103 C   0  0  0  0  0  0  0  0  0  0  0  0
    4.6443    2.3431    0.9935 C   0  0  0  0  0  0  0  0  0  0  0  0
    4.8655    1.0451    0.5779 C   0  0  0  0  0  0  0  0  0  0  0  0
    3.7207    0.2668    0.2894 C   0  0  0  0  0  0  0  0  0  0  0  0
    3.6220   -1.0117   -0.1208 N   0  0  0  0  0  0  0  0  0  0  0  0
    2.2833   -1.2229   -0.2305 N   0  0  0  0  0  0  0  0  0  0  0  0
    1.8359   -2.5578   -0.6064 C   0  0  0  0  0  0  0  0  0  0  0  0
    2.6494   -3.7720   -0.0944 C   0  0  0  0  0  0  0  0  0  0  0  0
    2.4294   -4.4376   -1.4836 C   0  0  0  0  0  0  0  0  0  0  0  0
    2.0881   -3.0347   -2.0609 C   0  0  0  0  0  0  0  0  0  0  0  0
    3.0590    4.2664    1.5444 C   0  0  0  0  0  0  0  0  0  0  0  0
    2.6079    5.0280    0.5171 F   0  0  0  0  0  0  0  0  0  0  0  0
    2.1411    4.3460    2.5323 F   0  0  0  0  0  0  0  0  0  0  0  0
    4.1946    4.8570    2.0031 F   0  0  0  0  0  0  0  0  0  0  0  0
   -2.0456    1.9830    2.8391 H   0  0  0  0  0  0  0  0  0  0  0  0
   -3.4625    0.9286    2.6255 H   0  0  0  0  0  0  0  0  0  0  0  0
   -3.3187    2.3977    1.6711 H   0  0  0  0  0  0  0  0  0  0  0  0
   -5.1752   -0.5924   -1.7450 H   0  0  0  0  0  0  0  0  0  0  0  0
   -3.0854   -1.4911   -2.8672 H   0  0  0  0  0  0  0  0  0  0  0  0
   -0.1339   -1.1306   -1.8891 H   0  0  0  0  0  0  0  0  0  0  0  0
   -0.0558    1.1120    1.7973 H   0  0  0  0  0  0  0  0  0  0  0  0
    5.4737    2.9971    1.2372 H   0  0  0  0  0  0  0  0  0  0  0  0
    5.8676    0.6376    0.4797 H   0  0  0  0  0  0  0  0  0  0  0  0
    0.7846   -2.6360   -0.3316 H   0  0  0  0  0  0  0  0  0  0  0  0
    2.2613   -4.2797    0.7924 H   0  0  0  0  0  0  0  0  0  0  0  0
    3.6923   -3.4964    0.0632 H   0  0  0  0  0  0  0  0  0  0  0  0
    1.5634   -5.1057   -1.4899 H   0  0  0  0  0  0  0  0  0  0  0  0
    3.2820   -4.9596   -1.9232 H   0  0  0  0  0  0  0  0  0  0  0  0
    2.9713   -2.5410   -2.4736 H   0  0  0  0  0  0  0  0  0  0  0  0
    1.2570   -2.9508   -2.7675 H   0  0  0  0  0  0  0  0  0  0  0  0
  1  2  1  0
  1 28  1  0
  1 29  1  0
  1 30  1  0
  2  3  1  0
  2 10  2  0
  3  4  2  0
  3  7  1  0
  4  5  1  0
  5  6  1  0
  5 31  1  0
  6  7  2  0
  6 32  1  0
  7  8  1  0
  8  9  2  0
  8 33  1  0
  9 10  1  0
  9 11  1  0
 10 34  1  0
 11 12  2  0
 11 19  1  0
 12 13  1  0
 12 17  1  0
 13 14  2  0
 14 15  1  0
 14 24  1  0
 15 16  2  0
 15 35  1  0
 16 17  1  0
 16 36  1  0
 17 18  2  0
 18 19  1  0
 19 20  1  0
 20 21  1  0
 20 23  1  0
 20 37  1  0
 21 22  1  0
 21 38  1  0
 21 39  1  0
 22 23  1  0
 22 40  1  0
 22 41  1  0
 23 42  1  0
 23 43  1  0
 24 25  1  0
 24 26  1  0
 24 27  1  0
M  END
>  <group_name>  (1) 
JNS

>  <molecule_index>  (1) 
01589

>  <conformer_index>  (1) 
06

>  <method>  (1) 
b3lyp-d3bj

>  <basis>  (1) 
dzvp

>  <program>  (1) 
psi4

>  <initial_energy>  (1) 
-820206.8710921615 kilocalorie / mole

>  <final_energy>  (1) 
-820252.298209913 kilocalorie / mole

$$$$
