JNS-01374-05
     RDKit          3D

 32 35  0  0  0  0  0  0  0  0999 V2000
   -0.4370    1.4068    0.6449 F   0  0  0  0  0  0  0  0  0  0  0  0
   -0.0698    0.2329    0.1254 C   0  0  0  0  0  0  0  0  0  0  0  0
   -0.6047   -0.7535    0.8929 F   0  0  0  0  0  0  0  0  0  0  0  0
   -0.6216    0.1187   -1.1067 F   0  0  0  0  0  0  0  0  0  0  0  0
    1.4335    0.1096    0.0591 C   0  0  0  0  0  0  0  0  0  0  0  0
    2.2561    0.9924    0.5725 N   0  0  0  0  0  0  0  0  0  0  0  0
    3.5191    0.4979    0.2886 C   0  0  0  0  0  0  0  0  0  0  0  0
    3.4160   -0.7270   -0.4201 C   0  0  0  0  0  0  0  0  0  0  0  0
    4.4119   -1.4811   -0.8592 N   0  0  0  0  0  0  0  0  0  0  0  0
    5.6257   -0.9925   -0.5780 C   0  0  0  0  0  0  0  0  0  0  0  0
    5.8715    0.2067    0.1179 C   0  0  0  0  0  0  0  0  0  0  0  0
    4.7995    0.9808    0.5680 C   0  0  0  0  0  0  0  0  0  0  0  0
    6.7739   -1.8527   -1.0762 C   0  0  0  0  0  0  0  0  0  0  0  0
    6.7460   -3.0847   -0.5207 F   0  0  0  0  0  0  0  0  0  0  0  0
    6.7280   -2.0126   -2.4172 F   0  0  0  0  0  0  0  0  0  0  0  0
    7.9766   -1.3022   -0.7758 F   0  0  0  0  0  0  0  0  0  0  0  0
    2.0529   -0.9674   -0.5571 N   0  0  0  0  0  0  0  0  0  0  0  0
    1.4675   -2.0911   -1.2232 C   0  0  0  0  0  0  0  0  0  0  0  0
    0.9026   -3.1290   -0.4944 C   0  0  0  0  0  0  0  0  0  0  0  0
    0.3641   -4.1890   -1.2364 C   0  0  0  0  0  0  0  0  0  0  0  0
    0.4604   -4.1086   -2.6540 C   0  0  0  0  0  0  0  0  0  0  0  0
   -0.1218   -5.2458   -3.1317 N   0  0  0  0  0  0  0  0  0  0  0  0
   -0.5819   -6.0498   -2.1326 N   0  0  0  0  0  0  0  0  0  0  0  0
   -0.3000   -5.4333   -0.9943 C   0  0  0  0  0  0  0  0  0  0  0  0
    1.0118   -3.1195   -3.3700 N   0  0  0  0  0  0  0  0  0  0  0  0
    1.5058   -2.1256   -2.6393 C   0  0  0  0  0  0  0  0  0  0  0  0
    6.8930    0.5197    0.2979 H   0  0  0  0  0  0  0  0  0  0  0  0
    4.9510    1.9111    1.1071 H   0  0  0  0  0  0  0  0  0  0  0  0
    0.8846   -3.1046    0.5911 H   0  0  0  0  0  0  0  0  0  0  0  0
   -0.2296   -5.5271   -4.0977 H   0  0  0  0  0  0  0  0  0  0  0  0
   -0.5757   -5.8907   -0.0523 H   0  0  0  0  0  0  0  0  0  0  0  0
    1.9650   -1.2975   -3.1755 H   0  0  0  0  0  0  0  0  0  0  0  0
  1  2  1  0
  2  3  1  0
  2  4  1  0
  2  5  1  0
  5  6  2  0
  5 17  1  0
  6  7  1  0
  7  8  2  0
  7 12  1  0
  8  9  1  0
  8 17  1  0
  9 10  2  0
 10 11  1  0
 10 13  1  0
 11 12  2  0
 11 27  1  0
 12 28  1  0
 13 14  1  0
 13 15  1  0
 13 16  1  0
 17 18  1  0
 18 19  2  0
 18 26  1  0
 19 20  1  0
 19 29  1  0
 20 21  2  0
 20 24  1  0
 21 22  1  0
 21 25  1  0
 22 23  1  0
 22 30  1  0
 23 24  2  0
 24 31  1  0
 25 26  2  0
 26 32  1  0
M  END
>  <group_name>  (1) 
JNS

>  <molecule_index>  (1) 
01374

>  <conformer_index>  (1) 
05

>  <method>  (1) 
b3lyp-d3bj

>  <basis>  (1) 
dzvp

>  <program>  (1) 
psi4

>  <initial_energy>  (1) 
-919202.9912862433 kilocalorie / mole

>  <final_energy>  (1) 
-919279.9089248687 kilocalorie / mole

$$$$
