JNS-01002-03
     RDKit          3D

 37 38  0  0  0  0  0  0  0  0999 V2000
   -3.0021   -2.3647    0.3130 C   0  0  0  0  0  0  0  0  0  0  0  0
   -2.1549   -1.1250    0.1697 C   0  0  0  0  0  0  0  0  0  0  0  0
   -2.8207    0.0290    0.0047 N   0  0  0  0  0  0  0  0  0  0  0  0
   -2.0830    1.1382   -0.1256 C   0  0  0  0  0  0  0  0  0  0  0  0
   -0.6990    1.1886   -0.0999 C   0  0  0  0  0  0  0  0  0  0  0  0
    0.0087   -0.0226    0.0736 C   0  0  0  0  0  0  0  0  0  0  0  0
    1.3828   -0.0164    0.1355 N   0  0  0  0  0  0  0  0  0  0  0  0
    2.1828   -1.2327    0.0399 C   0  0  0  0  0  0  0  0  0  0  0  0
    3.6774   -0.9152    0.0971 C   0  0  2  0  0  0  0  0  0  0  0  0
    4.5149   -2.1715   -0.1918 C   0  0  0  0  0  0  0  0  0  0  0  0
    6.0164   -1.8794   -0.0640 C   0  0  0  0  0  0  0  0  0  0  0  0
    6.3319   -1.2321    1.2867 C   0  0  0  0  0  0  0  0  0  0  0  0
    5.5218   -0.0191    1.4479 N   0  0  0  0  0  0  0  0  0  0  0  0
    4.0883   -0.3192    1.4519 C   0  0  0  0  0  0  0  0  0  0  0  0
   -0.7570   -1.1971    0.2048 C   0  0  0  0  0  0  0  0  0  0  0  0
   -2.8929    2.4079   -0.3206 C   0  0  0  0  0  0  0  0  0  0  0  0
   -3.7345    2.6304    0.7135 F   0  0  0  0  0  0  0  0  0  0  0  0
   -2.0957    3.5056   -0.4277 F   0  0  0  0  0  0  0  0  0  0  0  0
   -3.6423    2.3540   -1.4458 F   0  0  0  0  0  0  0  0  0  0  0  0
   -2.3934   -3.2655    0.4250 H   0  0  0  0  0  0  0  0  0  0  0  0
   -3.6566   -2.2705    1.1852 H   0  0  0  0  0  0  0  0  0  0  0  0
   -3.6476   -2.4800   -0.5632 H   0  0  0  0  0  0  0  0  0  0  0  0
   -0.1741    2.1322   -0.2065 H   0  0  0  0  0  0  0  0  0  0  0  0
    1.8245    0.8175   -0.2326 H   0  0  0  0  0  0  0  0  0  0  0  0
    1.9549   -1.7798   -0.8883 H   0  0  0  0  0  0  0  0  0  0  0  0
    1.9224   -1.8942    0.8751 H   0  0  0  0  0  0  0  0  0  0  0  0
    3.9098   -0.1693   -0.6770 H   0  0  0  0  0  0  0  0  0  0  0  0
    4.2846   -2.5582   -1.1915 H   0  0  0  0  0  0  0  0  0  0  0  0
    4.2352   -2.9578    0.5240 H   0  0  0  0  0  0  0  0  0  0  0  0
    6.3272   -1.1955   -0.8625 H   0  0  0  0  0  0  0  0  0  0  0  0
    6.5938   -2.8036   -0.1783 H   0  0  0  0  0  0  0  0  0  0  0  0
    7.3899   -0.9541    1.3362 H   0  0  0  0  0  0  0  0  0  0  0  0
    6.1436   -1.9688    2.0914 H   0  0  0  0  0  0  0  0  0  0  0  0
    5.7728    0.4486    2.3155 H   0  0  0  0  0  0  0  0  0  0  0  0
    3.8074   -1.0396    2.2456 H   0  0  0  0  0  0  0  0  0  0  0  0
    3.5369    0.6055    1.6479 H   0  0  0  0  0  0  0  0  0  0  0  0
   -0.2778   -2.1612    0.3307 H   0  0  0  0  0  0  0  0  0  0  0  0
  1  2  1  0
  1 20  1  0
  1 21  1  0
  1 22  1  0
  2  3  2  0
  2 15  1  0
  3  4  1  0
  4  5  2  0
  4 16  1  0
  5  6  1  0
  5 23  1  0
  6  7  1  0
  6 15  2  0
  7  8  1  0
  7 24  1  0
  8  9  1  0
  8 25  1  0
  8 26  1  0
  9 10  1  0
  9 14  1  0
  9 27  1  6
 10 11  1  0
 10 28  1  0
 10 29  1  0
 11 12  1  0
 11 30  1  0
 11 31  1  0
 12 13  1  0
 12 32  1  0
 12 33  1  0
 13 14  1  0
 13 34  1  0
 14 35  1  0
 14 36  1  0
 15 37  1  0
 16 17  1  0
 16 18  1  0
 16 19  1  0
M  END
>  <group_name>  (1) 
JNS

>  <molecule_index>  (1) 
01002

>  <conformer_index>  (1) 
03

>  <method>  (1) 
b3lyp-d3bj

>  <basis>  (1) 
dzvp

>  <program>  (1) 
psi4

>  <initial_energy>  (1) 
-608819.7322639532 kilocalorie / mole

>  <final_energy>  (1) 
-608826.8777515993 kilocalorie / mole

$$$$
