JNS-01548-07
     RDKit          3D

 36 39  0  0  0  0  0  0  0  0999 V2000
   -2.8272    2.2293    0.6608 C   0  0  0  0  0  0  0  0  0  0  0  0
   -2.0640    0.9744    0.3262 C   0  0  0  0  0  0  0  0  0  0  0  0
   -0.6709    0.9503    0.2511 C   0  0  0  0  0  0  0  0  0  0  0  0
    0.0215   -0.2262   -0.0728 C   0  0  0  0  0  0  0  0  0  0  0  0
   -0.6388   -1.4309   -0.3065 C   0  0  0  0  0  0  0  0  0  0  0  0
   -2.0282   -1.4143   -0.2175 C   0  0  0  0  0  0  0  0  0  0  0  0
   -2.7469   -0.2323    0.0858 C   0  0  0  0  0  0  0  0  0  0  0  0
   -4.1317   -0.3800    0.1288 N   0  0  0  0  0  0  0  0  0  0  0  0
   -4.4541   -1.6056   -0.1259 C   0  0  0  0  0  0  0  0  0  0  0  0
   -5.7113   -2.0780   -0.1627 O   0  0  0  0  0  0  0  0  0  0  0  0
   -3.1511   -2.7503   -0.4501 S   0  0  0  0  0  0  0  0  0  0  0  0
    1.4544   -0.2093   -0.1332 N   0  0  0  0  0  0  0  0  0  0  0  0
    2.3032   -0.9239    0.7059 C   0  0  0  0  0  0  0  0  0  0  0  0
    3.6200   -0.5968    0.2902 C   0  0  0  0  0  0  0  0  0  0  0  0
    4.6849   -1.1857    0.9760 C   0  0  0  0  0  0  0  0  0  0  0  0
    4.3539   -2.0547    2.0179 C   0  0  0  0  0  0  0  0  0  0  0  0
    3.0005   -2.2949    2.3240 C   0  0  0  0  0  0  0  0  0  0  0  0
    1.9603   -1.7457    1.6869 N   0  0  0  0  0  0  0  0  0  0  0  0
    2.6128   -3.2449    3.4430 C   0  0  0  0  0  0  0  0  0  0  0  0
    1.8673   -2.6282    4.3858 F   0  0  0  0  0  0  0  0  0  0  0  0
    3.7044   -3.7580    4.0636 F   0  0  0  0  0  0  0  0  0  0  0  0
    1.8896   -4.2889    2.9762 F   0  0  0  0  0  0  0  0  0  0  0  0
    3.5770    0.2848   -0.7758 N   0  0  0  0  0  0  0  0  0  0  0  0
    2.2968    0.4809   -0.9915 C   0  0  0  0  0  0  0  0  0  0  0  0
    1.7838    1.3791   -2.0936 C   0  0  0  0  0  0  0  0  0  0  0  0
    2.7612    1.6885   -2.9523 F   0  0  0  0  0  0  0  0  0  0  0  0
    1.2887    2.5419   -1.5934 F   0  0  0  0  0  0  0  0  0  0  0  0
    0.7839    0.7838   -2.7845 F   0  0  0  0  0  0  0  0  0  0  0  0
   -2.1497    3.0731    0.8122 H   0  0  0  0  0  0  0  0  0  0  0  0
   -3.5262    2.4836   -0.1422 H   0  0  0  0  0  0  0  0  0  0  0  0
   -3.4232    2.0922    1.5688 H   0  0  0  0  0  0  0  0  0  0  0  0
   -0.1072    1.8566    0.4470 H   0  0  0  0  0  0  0  0  0  0  0  0
   -0.0816   -2.3317   -0.5396 H   0  0  0  0  0  0  0  0  0  0  0  0
   -6.2987   -1.3255    0.0399 H   0  0  0  0  0  0  0  0  0  0  0  0
    5.7167   -0.9779    0.7089 H   0  0  0  0  0  0  0  0  0  0  0  0
    5.1279   -2.5489    2.5929 H   0  0  0  0  0  0  0  0  0  0  0  0
  1  2  1  0
  1 29  1  0
  1 30  1  0
  1 31  1  0
  2  3  2  0
  2  7  1  0
  3  4  1  0
  3 32  1  0
  4  5  2  0
  4 12  1  0
  5  6  1  0
  5 33  1  0
  6  7  2  0
  6 11  1  0
  7  8  1  0
  8  9  2  0
  9 10  1  0
  9 11  1  0
 10 34  1  0
 12 13  1  0
 12 24  1  0
 13 14  1  0
 13 18  2  0
 14 15  2  0
 14 23  1  0
 15 16  1  0
 15 35  1  0
 16 17  2  0
 16 36  1  0
 17 18  1  0
 17 19  1  0
 19 20  1  0
 19 21  1  0
 19 22  1  0
 23 24  2  0
 24 25  1  0
 25 26  1  0
 25 27  1  0
 25 28  1  0
M  END
>  <group_name>  (1) 
JNS

>  <molecule_index>  (1) 
01548

>  <conformer_index>  (1) 
07

>  <method>  (1) 
b3lyp-d3bj

>  <basis>  (1) 
dzvp

>  <program>  (1) 
psi4

>  <initial_energy>  (1) 
-1196162.2225958805 kilocalorie / mole

>  <final_energy>  (1) 
-1196233.4464205434 kilocalorie / mole

$$$$
