JNS-01494-00
     RDKit          3D

 42 45  0  0  0  0  0  0  0  0999 V2000
   -1.6769    0.1181    1.9287 C   0  0  0  0  0  0  0  0  0  0  0  0
   -0.1682    0.0596    1.6689 C   0  0  0  0  0  0  0  0  0  0  0  0
    0.1963   -0.2709    0.1983 C   0  0  2  0  0  0  0  0  0  0  0  0
   -0.2543   -1.6744   -0.2272 C   0  0  0  0  0  0  0  0  0  0  0  0
    1.6787   -0.1089    0.0127 C   0  0  0  0  0  0  0  0  0  0  0  0
    2.5494   -1.1002   -0.0050 N   0  0  0  0  0  0  0  0  0  0  0  0
    3.7958   -0.5030   -0.0913 C   0  0  0  0  0  0  0  0  0  0  0  0
    3.6574    0.9108   -0.1249 C   0  0  0  0  0  0  0  0  0  0  0  0
    4.6295    1.8055   -0.1949 N   0  0  0  0  0  0  0  0  0  0  0  0
    5.8605    1.2724   -0.2380 C   0  0  0  0  0  0  0  0  0  0  0  0
    6.1396   -0.1037   -0.2182 C   0  0  0  0  0  0  0  0  0  0  0  0
    5.0874   -1.0249   -0.1440 C   0  0  0  0  0  0  0  0  0  0  0  0
    6.9778    2.2930   -0.3028 C   0  0  0  0  0  0  0  0  0  0  0  0
    8.1988    1.7005   -0.3482 F   0  0  0  0  0  0  0  0  0  0  0  0
    6.9732    3.1096    0.7790 F   0  0  0  0  0  0  0  0  0  0  0  0
    6.8778    3.0836   -1.3964 F   0  0  0  0  0  0  0  0  0  0  0  0
    2.2886    1.1460   -0.0676 N   0  0  0  0  0  0  0  0  0  0  0  0
    1.6673    2.4323   -0.0748 C   0  0  0  0  0  0  0  0  0  0  0  0
    0.8348    2.7928   -1.1233 C   0  0  0  0  0  0  0  0  0  0  0  0
    0.2205    4.0580   -1.0764 C   0  0  0  0  0  0  0  0  0  0  0  0
    0.4886    4.9298    0.0126 C   0  0  0  0  0  0  0  0  0  0  0  0
   -0.2384    6.0634   -0.2361 N   0  0  0  0  0  0  0  0  0  0  0  0
   -0.9464    5.9866   -1.3977 N   0  0  0  0  0  0  0  0  0  0  0  0
   -0.6816    4.7944   -1.9101 C   0  0  0  0  0  0  0  0  0  0  0  0
    1.3541    4.5719    1.0613 C   0  0  0  0  0  0  0  0  0  0  0  0
    1.9320    3.3142    1.0037 C   0  0  0  0  0  0  0  0  0  0  0  0
   -2.1588   -0.8520    1.7765 H   0  0  0  0  0  0  0  0  0  0  0  0
   -2.1618    0.8440    1.2657 H   0  0  0  0  0  0  0  0  0  0  0  0
   -1.8762    0.4256    2.9605 H   0  0  0  0  0  0  0  0  0  0  0  0
    0.3009   -0.6892    2.3183 H   0  0  0  0  0  0  0  0  0  0  0  0
    0.2732    1.0265    1.9342 H   0  0  0  0  0  0  0  0  0  0  0  0
   -0.3103    0.4671   -0.4335 H   0  0  0  0  0  0  0  0  0  0  0  0
   -1.3422   -1.7600   -0.1661 H   0  0  0  0  0  0  0  0  0  0  0  0
    0.1962   -2.4375    0.4126 H   0  0  0  0  0  0  0  0  0  0  0  0
    0.0479   -1.8865   -1.2564 H   0  0  0  0  0  0  0  0  0  0  0  0
    7.1681   -0.4423   -0.2580 H   0  0  0  0  0  0  0  0  0  0  0  0
    5.2682   -2.0957   -0.1254 H   0  0  0  0  0  0  0  0  0  0  0  0
    0.6763    2.1156   -1.9575 H   0  0  0  0  0  0  0  0  0  0  0  0
   -0.2918    6.9104    0.3123 H   0  0  0  0  0  0  0  0  0  0  0  0
   -1.1361    4.4996   -2.8478 H   0  0  0  0  0  0  0  0  0  0  0  0
    1.5677    5.2468    1.8851 H   0  0  0  0  0  0  0  0  0  0  0  0
    2.6103    2.9889    1.7858 H   0  0  0  0  0  0  0  0  0  0  0  0
  1  2  1  0
  1 27  1  0
  1 28  1  0
  1 29  1  0
  2  3  1  0
  2 30  1  0
  2 31  1  0
  3  4  1  0
  3  5  1  0
  3 32  1  6
  4 33  1  0
  4 34  1  0
  4 35  1  0
  5  6  2  0
  5 17  1  0
  6  7  1  0
  7  8  2  0
  7 12  1  0
  8  9  1  0
  8 17  1  0
  9 10  2  0
 10 11  1  0
 10 13  1  0
 11 12  2  0
 11 36  1  0
 12 37  1  0
 13 14  1  0
 13 15  1  0
 13 16  1  0
 17 18  1  0
 18 19  2  0
 18 26  1  0
 19 20  1  0
 19 38  1  0
 20 21  2  0
 20 24  1  0
 21 22  1  0
 21 25  1  0
 22 23  1  0
 22 39  1  0
 23 24  2  0
 24 40  1  0
 25 26  2  0
 25 41  1  0
 26 42  1  0
M  END
>  <group_name>  (1) 
JNS

>  <molecule_index>  (1) 
01494

>  <conformer_index>  (1) 
00

>  <method>  (1) 
b3lyp-d3bj

>  <basis>  (1) 
dzvp

>  <program>  (1) 
psi4

>  <initial_energy>  (1) 
-796319.7129671175 kilocalorie / mole

>  <final_energy>  (1) 
-796377.2021639241 kilocalorie / mole

$$$$
