JNS-01564-05
     RDKit          3D

 45 49  0  0  0  0  0  0  0  0999 V2000
   -2.3220   -2.2015    1.6365 C   0  0  0  0  0  0  0  0  0  0  0  0
   -1.7575   -1.0815    0.7981 C   0  0  0  0  0  0  0  0  0  0  0  0
   -2.5900   -0.1644    0.1521 C   0  0  0  0  0  0  0  0  0  0  0  0
   -3.9921   -0.1087    0.1633 N   0  0  0  0  0  0  0  0  0  0  0  0
   -4.4884    0.9303   -0.6147 C   0  0  0  0  0  0  0  0  0  0  0  0
   -5.6670    1.1979   -0.7736 O   0  0  0  0  0  0  0  0  0  0  0  0
   -3.2646    1.6454   -1.2113 C   0  0  0  0  0  0  0  0  0  0  0  0
   -2.0932    0.8731   -0.6550 C   0  0  0  0  0  0  0  0  0  0  0  0
   -0.7274    1.0234   -0.8258 C   0  0  0  0  0  0  0  0  0  0  0  0
    0.1522    0.1349   -0.1707 C   0  0  0  0  0  0  0  0  0  0  0  0
   -0.3807   -0.9051    0.6155 C   0  0  0  0  0  0  0  0  0  0  0  0
    1.6048    0.2148   -0.3286 C   0  0  0  0  0  0  0  0  0  0  0  0
    2.5431   -0.8388   -0.4483 C   0  0  0  0  0  0  0  0  0  0  0  0
    2.3627   -2.1775   -0.4158 N   0  0  0  0  0  0  0  0  0  0  0  0
    3.4600   -2.8981   -0.5591 C   0  0  0  0  0  0  0  0  0  0  0  0
    4.7718   -2.3698   -0.7487 C   0  0  0  0  0  0  0  0  0  0  0  0
    4.9621   -1.0025   -0.7874 C   0  0  0  0  0  0  0  0  0  0  0  0
    3.8116   -0.1961   -0.6288 C   0  0  0  0  0  0  0  0  0  0  0  0
    3.6880    1.1444   -0.6055 N   0  0  0  0  0  0  0  0  0  0  0  0
    2.3563    1.3518   -0.4172 N   0  0  0  0  0  0  0  0  0  0  0  0
    1.9078    2.7362   -0.2649 C   0  0  0  0  0  0  0  0  0  0  0  0
    1.0144    3.0969    0.9515 C   0  0  0  0  0  0  0  0  0  0  0  0
    1.8351    4.4099    1.0894 C   0  0  0  0  0  0  0  0  0  0  0  0
    2.9563    3.7563    0.2338 C   0  0  0  0  0  0  0  0  0  0  0  0
    3.2369   -4.3992   -0.5298 C   0  0  0  0  0  0  0  0  0  0  0  0
    4.4115   -5.0820   -0.5208 F   0  0  0  0  0  0  0  0  0  0  0  0
    2.5415   -4.8242   -1.6126 F   0  0  0  0  0  0  0  0  0  0  0  0
    2.5429   -4.7865    0.5648 F   0  0  0  0  0  0  0  0  0  0  0  0
   -2.9115   -1.8170    2.4780 H   0  0  0  0  0  0  0  0  0  0  0  0
   -1.5243   -2.8249    2.0462 H   0  0  0  0  0  0  0  0  0  0  0  0
   -2.9774   -2.8514    1.0439 H   0  0  0  0  0  0  0  0  0  0  0  0
   -4.6049   -0.7434    0.6597 H   0  0  0  0  0  0  0  0  0  0  0  0
   -3.2824    2.6980   -0.9113 H   0  0  0  0  0  0  0  0  0  0  0  0
   -3.3304    1.6164   -2.3036 H   0  0  0  0  0  0  0  0  0  0  0  0
   -0.3434    1.7993   -1.4805 H   0  0  0  0  0  0  0  0  0  0  0  0
    0.3036   -1.6024    1.0875 H   0  0  0  0  0  0  0  0  0  0  0  0
    5.6084   -3.0503   -0.8577 H   0  0  0  0  0  0  0  0  0  0  0  0
    5.9461   -0.5646   -0.9283 H   0  0  0  0  0  0  0  0  0  0  0  0
    1.4593    3.0688   -1.2057 H   0  0  0  0  0  0  0  0  0  0  0  0
   -0.0610    3.1696    0.7833 H   0  0  0  0  0  0  0  0  0  0  0  0
    1.1980    2.4097    1.7816 H   0  0  0  0  0  0  0  0  0  0  0  0
    2.1022    4.7238    2.1009 H   0  0  0  0  0  0  0  0  0  0  0  0
    1.3546    5.2476    0.5760 H   0  0  0  0  0  0  0  0  0  0  0  0
    3.4589    4.3581   -0.5256 H   0  0  0  0  0  0  0  0  0  0  0  0
    3.7085    3.2634    0.8511 H   0  0  0  0  0  0  0  0  0  0  0  0
  1  2  1  0
  1 29  1  0
  1 30  1  0
  1 31  1  0
  2  3  2  0
  2 11  1  0
  3  4  1  0
  3  8  1  0
  4  5  1  0
  4 32  1  0
  5  6  2  0
  5  7  1  0
  7  8  1  0
  7 33  1  0
  7 34  1  0
  8  9  2  0
  9 10  1  0
  9 35  1  0
 10 11  2  0
 10 12  1  0
 11 36  1  0
 12 13  2  0
 12 20  1  0
 13 14  1  0
 13 18  1  0
 14 15  2  0
 15 16  1  0
 15 25  1  0
 16 17  2  0
 16 37  1  0
 17 18  1  0
 17 38  1  0
 18 19  2  0
 19 20  1  0
 20 21  1  0
 21 22  1  0
 21 24  1  0
 21 39  1  0
 22 23  1  0
 22 40  1  0
 22 41  1  0
 23 24  1  0
 23 42  1  0
 23 43  1  0
 24 44  1  0
 24 45  1  0
 25 26  1  0
 25 27  1  0
 25 28  1  0
M  END
>  <group_name>  (1) 
JNS

>  <molecule_index>  (1) 
01564

>  <conformer_index>  (1) 
05

>  <method>  (1) 
b3lyp-d3bj

>  <basis>  (1) 
dzvp

>  <program>  (1) 
psi4

>  <initial_energy>  (1) 
-857353.6512539888 kilocalorie / mole

>  <final_energy>  (1) 
-857426.0105343407 kilocalorie / mole

$$$$
