JNS-00617-07
     RDKit          3D

 44 48  0  0  0  0  0  0  0  0999 V2000
   -3.1180   -3.6841   -2.3384 F   0  0  0  0  0  0  0  0  0  0  0  0
   -2.1253   -3.8739   -1.4220 C   0  0  0  0  0  0  0  0  0  0  0  0
   -0.9868   -4.0807   -2.0973 F   0  0  0  0  0  0  0  0  0  0  0  0
   -2.4324   -5.0281   -0.7658 F   0  0  0  0  0  0  0  0  0  0  0  0
   -2.0491   -2.7047   -0.4587 C   0  0  0  0  0  0  0  0  0  0  0  0
   -0.9220   -2.0238   -0.4320 N   0  0  0  0  0  0  0  0  0  0  0  0
   -0.9035   -0.9794    0.4313 C   0  0  0  0  0  0  0  0  0  0  0  0
    0.1228   -0.0517    0.7192 C   0  0  0  0  0  0  0  0  0  0  0  0
   -0.4148    0.7747    1.6627 N   0  0  0  0  0  0  0  0  0  0  0  0
    0.1336    2.0340    2.1773 C   0  0  0  0  0  0  0  0  0  0  0  0
    0.2546    3.0968    1.0867 C   0  0  0  0  0  0  0  0  0  0  0  0
   -1.1153    3.5591    0.5094 C   0  0  0  0  0  0  0  0  0  0  0  0
   -1.0573    4.8100    1.4330 C   0  0  0  0  0  0  0  0  0  0  0  0
    0.4512    4.5224    1.6839 C   0  0  0  0  0  0  0  0  0  0  0  0
   -1.6945    0.4751    2.0200 N   0  0  0  0  0  0  0  0  0  0  0  0
   -1.9988   -0.6051    1.2763 C   0  0  0  0  0  0  0  0  0  0  0  0
   -3.1903   -1.3680    1.2215 C   0  0  0  0  0  0  0  0  0  0  0  0
   -3.2037   -2.4259    0.3386 C   0  0  0  0  0  0  0  0  0  0  0  0
    1.4723    0.0463    0.1519 C   0  0  0  0  0  0  0  0  0  0  0  0
    1.6232   -0.1424   -1.2429 C   0  0  0  0  0  0  0  0  0  0  0  0
    2.8710   -0.0684   -1.8631 C   0  0  0  0  0  0  0  0  0  0  0  0
    3.9692    0.1986   -1.0489 C   0  0  0  0  0  0  0  0  0  0  0  0
    5.3344    0.3373   -1.3051 N   0  0  0  0  0  0  0  0  0  0  0  0
    5.9293    0.5718   -0.0898 C   0  0  0  0  0  0  0  0  0  0  0  0
    7.2622    0.7442   -0.0459 O   0  0  0  0  0  0  0  0  0  0  0  0
    5.1057    0.6058    0.9246 N   0  0  0  0  0  0  0  0  0  0  0  0
    3.8488    0.3736    0.3543 C   0  0  0  0  0  0  0  0  0  0  0  0
    2.5960    0.2874    0.9600 C   0  0  0  0  0  0  0  0  0  0  0  0
   -0.5645    2.3466    2.9552 H   0  0  0  0  0  0  0  0  0  0  0  0
    1.1032    1.8536    2.6445 H   0  0  0  0  0  0  0  0  0  0  0  0
    0.9997    2.7835    0.3517 H   0  0  0  0  0  0  0  0  0  0  0  0
   -1.0395    3.8199   -0.5499 H   0  0  0  0  0  0  0  0  0  0  0  0
   -1.9574    2.8750    0.6442 H   0  0  0  0  0  0  0  0  0  0  0  0
   -1.6622    4.6888    2.3362 H   0  0  0  0  0  0  0  0  0  0  0  0
   -1.3060    5.7731    0.9793 H   0  0  0  0  0  0  0  0  0  0  0  0
    0.8095    4.5794    2.7174 H   0  0  0  0  0  0  0  0  0  0  0  0
    1.1044    5.1373    1.0587 H   0  0  0  0  0  0  0  0  0  0  0  0
   -4.0475   -1.1263    1.8433 H   0  0  0  0  0  0  0  0  0  0  0  0
   -4.0814   -3.0562    0.2369 H   0  0  0  0  0  0  0  0  0  0  0  0
    0.7434   -0.3572   -1.8390 H   0  0  0  0  0  0  0  0  0  0  0  0
    2.9679   -0.2184   -2.9348 H   0  0  0  0  0  0  0  0  0  0  0  0
    5.8151    0.2585   -2.1911 H   0  0  0  0  0  0  0  0  0  0  0  0
    7.4907    0.8883    0.8899 H   0  0  0  0  0  0  0  0  0  0  0  0
    2.5138    0.3728    2.0381 H   0  0  0  0  0  0  0  0  0  0  0  0
  1  2  1  0
  2  3  1  0
  2  4  1  0
  2  5  1  0
  5  6  2  0
  5 18  1  0
  6  7  1  0
  7  8  2  0
  7 16  1  0
  8  9  1  0
  8 19  1  0
  9 10  1  0
  9 15  1  0
 10 11  1  0
 10 29  1  0
 10 30  1  0
 11 12  1  0
 11 14  1  0
 11 31  1  0
 12 13  1  0
 12 32  1  0
 12 33  1  0
 13 14  1  0
 13 34  1  0
 13 35  1  0
 14 36  1  0
 14 37  1  0
 15 16  2  0
 16 17  1  0
 17 18  2  0
 17 38  1  0
 18 39  1  0
 19 20  2  0
 19 28  1  0
 20 21  1  0
 20 40  1  0
 21 22  2  0
 21 41  1  0
 22 23  1  0
 22 27  1  0
 23 24  1  0
 23 42  1  0
 24 25  1  0
 24 26  2  0
 25 43  1  0
 26 27  1  0
 27 28  2  0
 28 44  1  0
M  END
>  <group_name>  (1) 
JNS

>  <molecule_index>  (1) 
00617

>  <conformer_index>  (1) 
07

>  <method>  (1) 
b3lyp-d3bj

>  <basis>  (1) 
dzvp

>  <program>  (1) 
psi4

>  <initial_energy>  (1) 
-867415.556261079 kilocalorie / mole

>  <final_energy>  (1) 
-867483.4743261952 kilocalorie / mole

$$$$
