JNS-01384-08
     RDKit          3D

 36 39  0  0  0  0  0  0  0  0999 V2000
   -0.6582    0.6113   -0.8168 C   0  0  0  0  0  0  0  0  0  0  0  0
    0.0246    0.6119    0.5633 C   0  0  0  0  0  0  0  0  0  0  0  0
    1.5024    0.3919    0.4694 C   0  0  0  0  0  0  0  0  0  0  0  0
    2.3509    1.2968    0.0187 N   0  0  0  0  0  0  0  0  0  0  0  0
    3.6022    0.7129    0.1081 C   0  0  0  0  0  0  0  0  0  0  0  0
    3.4910   -0.5995    0.6399 C   0  0  0  0  0  0  0  0  0  0  0  0
    4.4763   -1.4484    0.8808 N   0  0  0  0  0  0  0  0  0  0  0  0
    5.6931   -0.9783    0.5673 C   0  0  0  0  0  0  0  0  0  0  0  0
    5.9455    0.2951    0.0306 C   0  0  0  0  0  0  0  0  0  0  0  0
    4.8809    1.1719   -0.2089 C   0  0  0  0  0  0  0  0  0  0  0  0
    6.8241   -1.9463    0.8484 C   0  0  0  0  0  0  0  0  0  0  0  0
    6.6831   -3.1009    0.1567 F   0  0  0  0  0  0  0  0  0  0  0  0
    8.0299   -1.4223    0.5104 F   0  0  0  0  0  0  0  0  0  0  0  0
    6.8868   -2.2750    2.1615 F   0  0  0  0  0  0  0  0  0  0  0  0
    2.1293   -0.7945    0.8558 N   0  0  0  0  0  0  0  0  0  0  0  0
    1.5409   -1.9803    1.3869 C   0  0  0  0  0  0  0  0  0  0  0  0
    1.9840   -2.4495    2.6334 C   0  0  0  0  0  0  0  0  0  0  0  0
    1.3809   -3.6116    3.0731 C   0  0  0  0  0  0  0  0  0  0  0  0
    0.3850   -4.3088    2.3673 C   0  0  0  0  0  0  0  0  0  0  0  0
    0.0056   -5.4342    3.1152 N   0  0  0  0  0  0  0  0  0  0  0  0
    0.7542   -5.3560    4.1713 C   0  0  0  0  0  0  0  0  0  0  0  0
    0.7978   -6.1806    5.2147 O   0  0  0  0  0  0  0  0  0  0  0  0
    1.6155   -4.3044    4.2536 O   0  0  0  0  0  0  0  0  0  0  0  0
   -0.0386   -3.8306    1.1268 C   0  0  0  0  0  0  0  0  0  0  0  0
    0.5629   -2.6644    0.6438 C   0  0  0  0  0  0  0  0  0  0  0  0
   -0.5480   -0.3551   -1.3187 H   0  0  0  0  0  0  0  0  0  0  0  0
   -0.2175    1.3778   -1.4592 H   0  0  0  0  0  0  0  0  0  0  0  0
   -1.7276    0.8173   -0.7101 H   0  0  0  0  0  0  0  0  0  0  0  0
   -0.1246    1.5876    1.0359 H   0  0  0  0  0  0  0  0  0  0  0  0
   -0.4255   -0.1416    1.2140 H   0  0  0  0  0  0  0  0  0  0  0  0
    6.9642    0.5903   -0.1912 H   0  0  0  0  0  0  0  0  0  0  0  0
    5.0416    2.1642   -0.6198 H   0  0  0  0  0  0  0  0  0  0  0  0
    2.7557   -1.9361    3.1950 H   0  0  0  0  0  0  0  0  0  0  0  0
    0.1518   -6.8888    5.0411 H   0  0  0  0  0  0  0  0  0  0  0  0
   -0.7946   -4.3548    0.5510 H   0  0  0  0  0  0  0  0  0  0  0  0
    0.2845   -2.2794   -0.3315 H   0  0  0  0  0  0  0  0  0  0  0  0
  1  2  1  0
  1 26  1  0
  1 27  1  0
  1 28  1  0
  2  3  1  0
  2 29  1  0
  2 30  1  0
  3  4  2  0
  3 15  1  0
  4  5  1  0
  5  6  2  0
  5 10  1  0
  6  7  1  0
  6 15  1  0
  7  8  2  0
  8  9  1  0
  8 11  1  0
  9 10  2  0
  9 31  1  0
 10 32  1  0
 11 12  1  0
 11 13  1  0
 11 14  1  0
 15 16  1  0
 16 17  2  0
 16 25  1  0
 17 18  1  0
 17 33  1  0
 18 19  2  0
 18 23  1  0
 19 20  1  0
 19 24  1  0
 20 21  2  0
 21 22  1  0
 21 23  1  0
 22 34  1  0
 24 25  2  0
 24 35  1  0
 25 36  1  0
M  END
>  <group_name>  (1) 
JNS

>  <molecule_index>  (1) 
01384

>  <conformer_index>  (1) 
08

>  <method>  (1) 
b3lyp-d3bj

>  <basis>  (1) 
dzvp

>  <program>  (1) 
psi4

>  <initial_energy>  (1) 
-806671.4915049945 kilocalorie / mole

>  <final_energy>  (1) 
-806720.3685636062 kilocalorie / mole

$$$$
