JNS-00617-05
     RDKit          3D

 44 48  0  0  0  0  0  0  0  0999 V2000
   -2.3114   -5.0103   -1.1620 F   0  0  0  0  0  0  0  0  0  0  0  0
   -1.6446   -3.9157   -1.6266 C   0  0  0  0  0  0  0  0  0  0  0  0
   -2.1558   -3.6577   -2.8641 F   0  0  0  0  0  0  0  0  0  0  0  0
   -0.3595   -4.2588   -1.7834 F   0  0  0  0  0  0  0  0  0  0  0  0
   -1.8404   -2.7289   -0.7019 C   0  0  0  0  0  0  0  0  0  0  0  0
   -0.7658   -2.0338   -0.3909 N   0  0  0  0  0  0  0  0  0  0  0  0
   -0.9889   -0.9649    0.4108 C   0  0  0  0  0  0  0  0  0  0  0  0
   -0.0834   -0.0241    0.9457 C   0  0  0  0  0  0  0  0  0  0  0  0
   -0.8583    0.8172    1.6890 N   0  0  0  0  0  0  0  0  0  0  0  0
   -0.4685    2.0973    2.2842 C   0  0  0  0  0  0  0  0  0  0  0  0
   -0.7850    3.2560    1.3483 C   0  0  0  0  0  0  0  0  0  0  0  0
   -0.2864    4.6691    1.7606 C   0  0  0  0  0  0  0  0  0  0  0  0
    0.0714    4.9293    0.2695 C   0  0  0  0  0  0  0  0  0  0  0  0
    0.0249    3.3938    0.0279 C   0  0  0  0  0  0  0  0  0  0  0  0
   -2.1850    0.5191    1.6912 N   0  0  0  0  0  0  0  0  0  0  0  0
   -2.2745   -0.5780    0.9159 C   0  0  0  0  0  0  0  0  0  0  0  0
   -3.4031   -1.3551    0.5589 C   0  0  0  0  0  0  0  0  0  0  0  0
   -3.1705   -2.4373   -0.2618 C   0  0  0  0  0  0  0  0  0  0  0  0
    1.3726    0.0757    0.7780 C   0  0  0  0  0  0  0  0  0  0  0  0
    2.2245    0.1569    1.9044 C   0  0  0  0  0  0  0  0  0  0  0  0
    3.6115    0.2495    1.7715 C   0  0  0  0  0  0  0  0  0  0  0  0
    4.1210    0.2444    0.4750 C   0  0  0  0  0  0  0  0  0  0  0  0
    5.4191    0.3363   -0.0365 N   0  0  0  0  0  0  0  0  0  0  0  0
    5.2889    0.2452   -1.4187 C   0  0  0  0  0  0  0  0  0  0  0  0
    6.3641    0.2404   -2.2360 O   0  0  0  0  0  0  0  0  0  0  0  0
    4.0602    0.1570   -1.8359 N   0  0  0  0  0  0  0  0  0  0  0  0
    3.2908    0.1398   -0.6696 C   0  0  0  0  0  0  0  0  0  0  0  0
    1.9063    0.0520   -0.5195 C   0  0  0  0  0  0  0  0  0  0  0  0
    0.5995    2.0663    2.4995 H   0  0  0  0  0  0  0  0  0  0  0  0
   -1.0166    2.1921    3.2251 H   0  0  0  0  0  0  0  0  0  0  0  0
   -1.8599    3.2671    1.1448 H   0  0  0  0  0  0  0  0  0  0  0  0
   -1.0056    5.3376    2.2426 H   0  0  0  0  0  0  0  0  0  0  0  0
    0.6125    4.6115    2.3850 H   0  0  0  0  0  0  0  0  0  0  0  0
   -0.7361    5.4486   -0.2549 H   0  0  0  0  0  0  0  0  0  0  0  0
    1.0132    5.4435    0.0600 H   0  0  0  0  0  0  0  0  0  0  0  0
    1.0165    2.9393    0.1145 H   0  0  0  0  0  0  0  0  0  0  0  0
   -0.4442    3.0318   -0.8906 H   0  0  0  0  0  0  0  0  0  0  0  0
   -4.3987   -1.1065    0.9150 H   0  0  0  0  0  0  0  0  0  0  0  0
   -3.9848   -3.0810   -0.5786 H   0  0  0  0  0  0  0  0  0  0  0  0
    1.7919    0.1131    2.8997 H   0  0  0  0  0  0  0  0  0  0  0  0
    4.2521    0.3074    2.6473 H   0  0  0  0  0  0  0  0  0  0  0  0
    6.2680    0.1683    0.4883 H   0  0  0  0  0  0  0  0  0  0  0  0
    7.1099    0.6959   -1.8138 H   0  0  0  0  0  0  0  0  0  0  0  0
    1.2597   -0.0299   -1.3865 H   0  0  0  0  0  0  0  0  0  0  0  0
  1  2  1  0
  2  3  1  0
  2  4  1  0
  2  5  1  0
  5  6  2  0
  5 18  1  0
  6  7  1  0
  7  8  2  0
  7 16  1  0
  8  9  1  0
  8 19  1  0
  9 10  1  0
  9 15  1  0
 10 11  1  0
 10 29  1  0
 10 30  1  0
 11 12  1  0
 11 14  1  0
 11 31  1  0
 12 13  1  0
 12 32  1  0
 12 33  1  0
 13 14  1  0
 13 34  1  0
 13 35  1  0
 14 36  1  0
 14 37  1  0
 15 16  2  0
 16 17  1  0
 17 18  2  0
 17 38  1  0
 18 39  1  0
 19 20  2  0
 19 28  1  0
 20 21  1  0
 20 40  1  0
 21 22  2  0
 21 41  1  0
 22 23  1  0
 22 27  1  0
 23 24  1  0
 23 42  1  0
 24 25  1  0
 24 26  2  0
 25 43  1  0
 26 27  1  0
 27 28  2  0
 28 44  1  0
M  END
>  <group_name>  (1) 
JNS

>  <molecule_index>  (1) 
00617

>  <conformer_index>  (1) 
05

>  <method>  (1) 
b3lyp-d3bj

>  <basis>  (1) 
dzvp

>  <program>  (1) 
psi4

>  <initial_energy>  (1) 
-867412.8655525431 kilocalorie / mole

>  <final_energy>  (1) 
-867475.6676434752 kilocalorie / mole

$$$$
