JNS-01595-06
     RDKit          3D

 39 42  0  0  0  0  0  0  0  0999 V2000
   -0.7908   -0.6626   -0.6708 C   0  0  0  0  0  0  0  0  0  0  0  0
    0.0044   -0.2228    0.5742 C   0  0  0  0  0  0  0  0  0  0  0  0
   -0.1678   -1.2281    1.7269 C   0  0  0  0  0  0  0  0  0  0  0  0
    1.4604   -0.0683    0.2343 C   0  0  0  0  0  0  0  0  0  0  0  0
    2.2712   -1.0800   -0.0116 N   0  0  0  0  0  0  0  0  0  0  0  0
    3.5117   -0.5178   -0.2544 C   0  0  0  0  0  0  0  0  0  0  0  0
    3.4345    0.8962   -0.1453 C   0  0  0  0  0  0  0  0  0  0  0  0
    4.4213    1.7634   -0.2990 N   0  0  0  0  0  0  0  0  0  0  0  0
    5.6037    1.2009   -0.5923 C   0  0  0  0  0  0  0  0  0  0  0  0
    5.8197   -0.1796   -0.7352 C   0  0  0  0  0  0  0  0  0  0  0  0
    4.7540   -1.0714   -0.5641 C   0  0  0  0  0  0  0  0  0  0  0  0
    6.7368    2.1920   -0.7594 C   0  0  0  0  0  0  0  0  0  0  0  0
    7.9111    1.5717   -1.0396 F   0  0  0  0  0  0  0  0  0  0  0  0
    6.9316    2.9229    0.3655 F   0  0  0  0  0  0  0  0  0  0  0  0
    6.4981    3.0672   -1.7638 F   0  0  0  0  0  0  0  0  0  0  0  0
    2.1042    1.1694    0.1604 N   0  0  0  0  0  0  0  0  0  0  0  0
    1.5598    2.4742    0.3512 C   0  0  0  0  0  0  0  0  0  0  0  0
    0.5120    2.9145   -0.4437 C   0  0  0  0  0  0  0  0  0  0  0  0
    0.0066    4.2028   -0.2047 C   0  0  0  0  0  0  0  0  0  0  0  0
    0.5819    5.0249    0.7988 C   0  0  0  0  0  0  0  0  0  0  0  0
   -0.1205    6.2015    0.7660 N   0  0  0  0  0  0  0  0  0  0  0  0
   -1.1007    6.2014   -0.1839 N   0  0  0  0  0  0  0  0  0  0  0  0
   -1.0290    5.0185   -0.7607 C   0  0  0  0  0  0  0  0  0  0  0  0
   -2.2005    4.5312   -2.1592 Br  0  0  0  0  0  0  0  0  0  0  0  0
    1.6585    4.5823    1.5874 C   0  0  0  0  0  0  0  0  0  0  0  0
    2.1309    3.3014    1.3531 C   0  0  0  0  0  0  0  0  0  0  0  0
   -0.6917    0.0558   -1.4908 H   0  0  0  0  0  0  0  0  0  0  0  0
   -0.4310   -1.6323   -1.0260 H   0  0  0  0  0  0  0  0  0  0  0  0
   -1.8539   -0.7521   -0.4255 H   0  0  0  0  0  0  0  0  0  0  0  0
   -0.3729    0.7502    0.9021 H   0  0  0  0  0  0  0  0  0  0  0  0
    0.2198   -2.2089    1.4405 H   0  0  0  0  0  0  0  0  0  0  0  0
   -1.2284   -1.3282    1.9789 H   0  0  0  0  0  0  0  0  0  0  0  0
    0.3684   -0.8991    2.6226 H   0  0  0  0  0  0  0  0  0  0  0  0
    6.8116   -0.5444   -0.9743 H   0  0  0  0  0  0  0  0  0  0  0  0
    4.8878   -2.1444   -0.6654 H   0  0  0  0  0  0  0  0  0  0  0  0
    0.1024    2.2895   -1.2304 H   0  0  0  0  0  0  0  0  0  0  0  0
    0.0096    7.0332    1.3252 H   0  0  0  0  0  0  0  0  0  0  0  0
    2.1079    5.2117    2.3498 H   0  0  0  0  0  0  0  0  0  0  0  0
    2.9635    2.9161    1.9318 H   0  0  0  0  0  0  0  0  0  0  0  0
  1  2  1  0
  1 27  1  0
  1 28  1  0
  1 29  1  0
  2  3  1  0
  2  4  1  0
  2 30  1  0
  3 31  1  0
  3 32  1  0
  3 33  1  0
  4  5  2  0
  4 16  1  0
  5  6  1  0
  6  7  2  0
  6 11  1  0
  7  8  1  0
  7 16  1  0
  8  9  2  0
  9 10  1  0
  9 12  1  0
 10 11  2  0
 10 34  1  0
 11 35  1  0
 12 13  1  0
 12 14  1  0
 12 15  1  0
 16 17  1  0
 17 18  2  0
 17 26  1  0
 18 19  1  0
 18 36  1  0
 19 20  2  0
 19 23  1  0
 20 21  1  0
 20 25  1  0
 21 22  1  0
 21 37  1  0
 22 23  2  0
 23 24  1  0
 25 26  2  0
 25 38  1  0
 26 39  1  0
M  END
>  <group_name>  (1) 
JNS

>  <molecule_index>  (1) 
01595

>  <conformer_index>  (1) 
06

>  <method>  (1) 
b3lyp-d3bj

>  <basis>  (1) 
dzvp

>  <program>  (1) 
psi4

>  <initial_energy>  (1) 
-2386282.376204863 kilocalorie / mole

>  <final_energy>  (1) 
-2386340.383291489 kilocalorie / mole

$$$$
