JNS-01861-00
     RDKit          3D

 34 37  0  0  0  0  0  0  0  0999 V2000
   -3.0520    2.1492    0.9938 C   0  0  0  0  0  0  0  0  0  0  0  0
   -2.1825    1.0829    0.3863 C   0  0  0  0  0  0  0  0  0  0  0  0
   -0.8260    1.2351    0.2062 C   0  0  0  0  0  0  0  0  0  0  0  0
   -0.0104    0.2030   -0.3633 C   0  0  0  0  0  0  0  0  0  0  0  0
   -0.5352   -1.0064   -0.7650 C   0  0  0  0  0  0  0  0  0  0  0  0
   -1.9337   -1.1913   -0.6124 C   0  0  0  0  0  0  0  0  0  0  0  0
   -2.7491   -0.1565   -0.0377 C   0  0  0  0  0  0  0  0  0  0  0  0
   -4.0472   -0.5287    0.0345 N   0  0  0  0  0  0  0  0  0  0  0  0
   -4.0458   -1.7742   -0.4836 N   0  0  0  0  0  0  0  0  0  0  0  0
   -2.8315   -2.2305   -0.8856 C   0  0  0  0  0  0  0  0  0  0  0  0
    1.3806    0.4569   -0.5454 N   0  0  0  0  0  0  0  0  0  0  0  0
    2.1216    0.0890   -1.6633 C   0  0  0  0  0  0  0  0  0  0  0  0
    3.4462    0.4174   -1.5014 C   0  0  0  0  0  0  0  0  0  0  0  0
    3.5627    1.0291   -0.2089 C   0  0  0  0  0  0  0  0  0  0  0  0
    2.2521    1.0390    0.3662 C   0  0  0  0  0  0  0  0  0  0  0  0
    1.9275    1.5084    1.5645 N   0  0  0  0  0  0  0  0  0  0  0  0
    2.9418    2.0217    2.2675 C   0  0  0  0  0  0  0  0  0  0  0  0
    4.2740    2.0825    1.8231 C   0  0  0  0  0  0  0  0  0  0  0  0
    4.5950    1.5766    0.5625 C   0  0  0  0  0  0  0  0  0  0  0  0
    2.5466    2.5580    3.6282 C   0  0  0  0  0  0  0  0  0  0  0  0
    3.6097    3.0852    4.2892 F   0  0  0  0  0  0  0  0  0  0  0  0
    1.6142    3.5367    3.5309 F   0  0  0  0  0  0  0  0  0  0  0  0
    2.0258    1.5919    4.4201 F   0  0  0  0  0  0  0  0  0  0  0  0
   -2.4667    3.0332    1.2580 H   0  0  0  0  0  0  0  0  0  0  0  0
   -3.8466    2.4451    0.3005 H   0  0  0  0  0  0  0  0  0  0  0  0
   -3.5452    1.7746    1.8972 H   0  0  0  0  0  0  0  0  0  0  0  0
   -0.3434    2.1558    0.5135 H   0  0  0  0  0  0  0  0  0  0  0  0
    0.1031   -1.7914   -1.1590 H   0  0  0  0  0  0  0  0  0  0  0  0
   -4.9254   -2.2726   -0.5348 H   0  0  0  0  0  0  0  0  0  0  0  0
   -2.7018   -3.2146   -1.3143 H   0  0  0  0  0  0  0  0  0  0  0  0
    1.6192   -0.3588   -2.5097 H   0  0  0  0  0  0  0  0  0  0  0  0
    4.2307    0.2590   -2.2295 H   0  0  0  0  0  0  0  0  0  0  0  0
    5.0355    2.5182    2.4591 H   0  0  0  0  0  0  0  0  0  0  0  0
    5.6179    1.6083    0.1968 H   0  0  0  0  0  0  0  0  0  0  0  0
  1  2  1  0
  1 24  1  0
  1 25  1  0
  1 26  1  0
  2  3  2  0
  2  7  1  0
  3  4  1  0
  3 27  1  0
  4  5  2  0
  4 11  1  0
  5  6  1  0
  5 28  1  0
  6  7  1  0
  6 10  2  0
  7  8  2  0
  8  9  1  0
  9 10  1  0
  9 29  1  0
 10 30  1  0
 11 12  1  0
 11 15  1  0
 12 13  2  0
 12 31  1  0
 13 14  1  0
 13 32  1  0
 14 15  2  0
 14 19  1  0
 15 16  1  0
 16 17  2  0
 17 18  1  0
 17 20  1  0
 18 19  2  0
 18 33  1  0
 19 34  1  0
 20 21  1  0
 20 22  1  0
 20 23  1  0
M  END
>  <group_name>  (1) 
JNS

>  <molecule_index>  (1) 
01861

>  <conformer_index>  (1) 
00

>  <method>  (1) 
b3lyp-d3bj

>  <basis>  (1) 
dzvp

>  <program>  (1) 
psi4

>  <initial_energy>  (1) 
-712233.596809553 kilocalorie / mole

>  <final_energy>  (1) 
-712273.4727753804 kilocalorie / mole

$$$$
