JNS-01358-06
     RDKit          3D

 41 45  0  0  0  0  0  0  0  0999 V2000
   -3.0694    1.9612   -0.5920 F   0  0  0  0  0  0  0  0  0  0  0  0
   -2.2736    0.8777   -0.4627 C   0  0  0  0  0  0  0  0  0  0  0  0
   -2.8759   -0.2899   -0.4846 N   0  0  0  0  0  0  0  0  0  0  0  0
   -2.0831   -1.3720   -0.3683 C   0  0  0  0  0  0  0  0  0  0  0  0
   -0.7020   -1.3002   -0.2200 C   0  0  0  0  0  0  0  0  0  0  0  0
   -0.0906   -0.0334   -0.1830 C   0  0  0  0  0  0  0  0  0  0  0  0
   -0.9037    1.0981   -0.3190 C   0  0  0  0  0  0  0  0  0  0  0  0
    1.3716    0.0412   -0.0446 C   0  0  0  0  0  0  0  0  0  0  0  0
    2.1775   -0.9143   -0.4809 N   0  0  0  0  0  0  0  0  0  0  0  0
    3.4559   -0.4688   -0.2142 C   0  0  0  0  0  0  0  0  0  0  0  0
    3.4078    0.8031    0.4159 C   0  0  0  0  0  0  0  0  0  0  0  0
    4.4375    1.5300    0.8205 N   0  0  0  0  0  0  0  0  0  0  0  0
    5.6299    0.9677    0.5813 C   0  0  0  0  0  0  0  0  0  0  0  0
    5.8212   -0.2808   -0.0381 C   0  0  0  0  0  0  0  0  0  0  0  0
    4.7142   -1.0278   -0.4501 C   0  0  0  0  0  0  0  0  0  0  0  0
    6.8127    1.7991    1.0397 C   0  0  0  0  0  0  0  0  0  0  0  0
    6.7949    1.9972    2.3778 F   0  0  0  0  0  0  0  0  0  0  0  0
    7.9928    1.2013    0.7380 F   0  0  0  0  0  0  0  0  0  0  0  0
    6.8208    3.0192    0.4544 F   0  0  0  0  0  0  0  0  0  0  0  0
    2.0568    1.1167    0.5214 N   0  0  0  0  0  0  0  0  0  0  0  0
    1.5286    2.2308    1.2454 C   0  0  0  0  0  0  0  0  0  0  0  0
    0.6935    2.0015    2.3521 C   0  0  0  0  0  0  0  0  0  0  0  0
    0.1671    3.0912    3.0239 C   0  0  0  0  0  0  0  0  0  0  0  0
    0.4953    4.3979    2.6089 C   0  0  0  0  0  0  0  0  0  0  0  0
   -0.1488    5.3181    3.4428 N   0  0  0  0  0  0  0  0  0  0  0  0
   -0.9122    4.7000    4.4296 C   0  0  0  0  0  0  0  0  0  0  0  0
   -1.5642    5.2733    5.2827 O   0  0  0  0  0  0  0  0  0  0  0  0
   -0.7555    3.1860    4.2125 C   0  0  0  0  0  0  0  0  0  0  0  0
    1.3430    4.6346    1.5301 C   0  0  0  0  0  0  0  0  0  0  0  0
    1.8567    3.5270    0.8438 C   0  0  0  0  0  0  0  0  0  0  0  0
   -2.5871   -2.3355   -0.3944 H   0  0  0  0  0  0  0  0  0  0  0  0
   -0.0987   -2.1968   -0.1367 H   0  0  0  0  0  0  0  0  0  0  0  0
   -0.5165    2.1088   -0.3271 H   0  0  0  0  0  0  0  0  0  0  0  0
    6.8273   -0.6529   -0.1916 H   0  0  0  0  0  0  0  0  0  0  0  0
    4.8244   -1.9956   -0.9300 H   0  0  0  0  0  0  0  0  0  0  0  0
    0.4638    0.9849    2.6582 H   0  0  0  0  0  0  0  0  0  0  0  0
   -0.0801    6.3262    3.3734 H   0  0  0  0  0  0  0  0  0  0  0  0
   -0.3490    2.7312    5.1212 H   0  0  0  0  0  0  0  0  0  0  0  0
   -1.7408    2.7431    4.0367 H   0  0  0  0  0  0  0  0  0  0  0  0
    1.6026    5.6426    1.2200 H   0  0  0  0  0  0  0  0  0  0  0  0
    2.5186    3.6707   -0.0036 H   0  0  0  0  0  0  0  0  0  0  0  0
  1  2  1  0
  2  3  2  0
  2  7  1  0
  3  4  1  0
  4  5  2  0
  4 31  1  0
  5  6  1  0
  5 32  1  0
  6  7  2  0
  6  8  1  0
  7 33  1  0
  8  9  2  0
  8 20  1  0
  9 10  1  0
 10 11  2  0
 10 15  1  0
 11 12  1  0
 11 20  1  0
 12 13  2  0
 13 14  1  0
 13 16  1  0
 14 15  2  0
 14 34  1  0
 15 35  1  0
 16 17  1  0
 16 18  1  0
 16 19  1  0
 20 21  1  0
 21 22  2  0
 21 30  1  0
 22 23  1  0
 22 36  1  0
 23 24  2  0
 23 28  1  0
 24 25  1  0
 24 29  1  0
 25 26  1  0
 25 37  1  0
 26 27  2  0
 26 28  1  0
 28 38  1  0
 28 39  1  0
 29 30  2  0
 29 40  1  0
 30 41  1  0
M  END
>  <group_name>  (1) 
JNS

>  <molecule_index>  (1) 
01358

>  <conformer_index>  (1) 
06

>  <method>  (1) 
b3lyp-d3bj

>  <basis>  (1) 
dzvp

>  <program>  (1) 
psi4

>  <initial_energy>  (1) 
-952206.9375145208 kilocalorie / mole

>  <final_energy>  (1) 
-952214.8586669991 kilocalorie / mole

$$$$
