JNS-01242-00
     RDKit          3D

 41 45  0  0  0  0  0  0  0  0999 V2000
   -0.6552    4.3436    2.2531 F   0  0  0  0  0  0  0  0  0  0  0  0
   -1.0310    4.4070    0.9547 C   0  0  0  0  0  0  0  0  0  0  0  0
   -0.0155    4.9909    0.2745 F   0  0  0  0  0  0  0  0  0  0  0  0
   -2.0935    5.2492    0.8864 F   0  0  0  0  0  0  0  0  0  0  0  0
   -1.3640    3.0378    0.3976 C   0  0  0  0  0  0  0  0  0  0  0  0
   -2.6434    2.7547   -0.1083 C   0  0  0  0  0  0  0  0  0  0  0  0
   -2.9220    1.4834   -0.6239 C   0  0  0  0  0  0  0  0  0  0  0  0
   -1.8835    0.5528   -0.6000 C   0  0  0  0  0  0  0  0  0  0  0  0
   -1.7968   -0.7615   -1.0263 N   0  0  0  0  0  0  0  0  0  0  0  0
   -0.5634   -1.1429   -0.7549 C   0  0  0  0  0  0  0  0  0  0  0  0
    0.0039   -2.4973   -1.0366 C   0  0  2  0  0  0  0  0  0  0  0  0
   -0.6320   -3.1862   -2.2627 C   0  0  0  0  0  0  0  0  0  0  0  0
   -0.5514   -4.6624   -1.8769 C   0  0  0  0  0  0  0  0  0  0  0  0
   -0.8489   -4.6820   -0.4777 O   0  0  0  0  0  0  0  0  0  0  0  0
   -0.2440   -3.5331    0.1127 C   0  0  0  0  0  0  0  0  0  0  0  0
    0.1937   -0.1371   -0.1521 N   0  0  0  0  0  0  0  0  0  0  0  0
   -0.6408    0.9720   -0.0536 C   0  0  0  0  0  0  0  0  0  0  0  0
   -0.3458    2.1645    0.4363 N   0  0  0  0  0  0  0  0  0  0  0  0
    1.5498   -0.2036    0.2868 C   0  0  0  0  0  0  0  0  0  0  0  0
    1.8926   -1.0738    1.3360 C   0  0  0  0  0  0  0  0  0  0  0  0
    3.2093   -1.1810    1.7940 C   0  0  0  0  0  0  0  0  0  0  0  0
    4.1710   -0.3742    1.1846 C   0  0  0  0  0  0  0  0  0  0  0  0
    5.5489   -0.2337    1.4080 N   0  0  0  0  0  0  0  0  0  0  0  0
    5.8999    0.6705    0.5469 C   0  0  0  0  0  0  0  0  0  0  0  0
    7.1096    1.1801    0.3321 O   0  0  0  0  0  0  0  0  0  0  0  0
    4.9271    1.1815   -0.2579 O   0  0  0  0  0  0  0  0  0  0  0  0
    3.7883    0.5021    0.1536 C   0  0  0  0  0  0  0  0  0  0  0  0
    2.5004    0.6229   -0.3313 C   0  0  0  0  0  0  0  0  0  0  0  0
   -3.4055    3.5249   -0.0977 H   0  0  0  0  0  0  0  0  0  0  0  0
   -3.8997    1.2327   -1.0248 H   0  0  0  0  0  0  0  0  0  0  0  0
    1.0823   -2.3934   -1.1839 H   0  0  0  0  0  0  0  0  0  0  0  0
   -0.1033   -2.9489   -3.1898 H   0  0  0  0  0  0  0  0  0  0  0  0
   -1.6735   -2.8742   -2.3587 H   0  0  0  0  0  0  0  0  0  0  0  0
   -1.2874   -5.2932   -2.3806 H   0  0  0  0  0  0  0  0  0  0  0  0
    0.4541   -5.0725   -2.0626 H   0  0  0  0  0  0  0  0  0  0  0  0
   -0.9270   -3.1538    0.8785 H   0  0  0  0  0  0  0  0  0  0  0  0
    0.7087   -3.8054    0.5864 H   0  0  0  0  0  0  0  0  0  0  0  0
    1.1081   -1.6567    1.8071 H   0  0  0  0  0  0  0  0  0  0  0  0
    3.4724   -1.8545    2.6032 H   0  0  0  0  0  0  0  0  0  0  0  0
    7.7140    0.7489    0.9628 H   0  0  0  0  0  0  0  0  0  0  0  0
    2.2281    1.3097   -1.1248 H   0  0  0  0  0  0  0  0  0  0  0  0
  1  2  1  0
  2  3  1  0
  2  4  1  0
  2  5  1  0
  5  6  2  0
  5 18  1  0
  6  7  1  0
  6 29  1  0
  7  8  2  0
  7 30  1  0
  8  9  1  0
  8 17  1  0
  9 10  2  0
 10 11  1  0
 10 16  1  0
 11 12  1  0
 11 15  1  0
 11 31  1  6
 12 13  1  0
 12 32  1  0
 12 33  1  0
 13 14  1  0
 13 34  1  0
 13 35  1  0
 14 15  1  0
 15 36  1  0
 15 37  1  0
 16 17  1  0
 16 19  1  0
 17 18  2  0
 19 20  2  0
 19 28  1  0
 20 21  1  0
 20 38  1  0
 21 22  2  0
 21 39  1  0
 22 23  1  0
 22 27  1  0
 23 24  2  0
 24 25  1  0
 24 26  1  0
 25 40  1  0
 26 27  1  0
 27 28  2  0
 28 41  1  0
M  END
>  <group_name>  (1) 
JNS

>  <molecule_index>  (1) 
01242

>  <conformer_index>  (1) 
00

>  <method>  (1) 
b3lyp-d3bj

>  <basis>  (1) 
dzvp

>  <program>  (1) 
psi4

>  <initial_energy>  (1) 
-902446.6806047662 kilocalorie / mole

>  <final_energy>  (1) 
-902513.0668078919 kilocalorie / mole

$$$$
