JNS-02240-05
     RDKit          3D

 51 55  0  0  0  0  0  0  0  0999 V2000
   -0.3746    7.4475    3.5937 C   0  0  0  0  0  0  0  0  0  0  0  0
   -0.5634    6.0221    3.1513 C   0  0  0  0  0  0  0  0  0  0  0  0
   -1.5009    5.2919    3.7627 N   0  0  0  0  0  0  0  0  0  0  0  0
   -1.6571    4.0084    3.3829 C   0  0  0  0  0  0  0  0  0  0  0  0
   -2.7239    3.2798    4.1251 C   0  0  0  0  0  0  0  0  0  0  0  0
   -2.6655    1.9411    4.2154 N   0  0  0  0  0  0  0  0  0  0  0  0
   -3.6321    1.3394    4.9165 C   0  0  0  0  0  0  0  0  0  0  0  0
   -4.6661    2.0595    5.5203 C   0  0  0  0  0  0  0  0  0  0  0  0
   -4.7413    3.3948    5.4291 N   0  0  0  0  0  0  0  0  0  0  0  0
   -3.7697    3.9984    4.7402 C   0  0  0  0  0  0  0  0  0  0  0  0
   -0.8777    3.4381    2.3571 C   0  0  0  0  0  0  0  0  0  0  0  0
   -1.0338    2.0187    1.8479 C   0  0  0  0  0  0  0  0  0  0  0  0
   -0.2545    1.7305    0.5507 C   0  0  1  0  0  0  0  0  0  0  0  0
   -0.9515    2.1679   -0.7522 C   0  0  0  0  0  0  0  0  0  0  0  0
   -1.0090    3.6923   -0.9336 C   0  0  0  0  0  0  0  0  0  0  0  0
    0.3690    4.3252   -0.6977 C   0  0  0  0  0  0  0  0  0  0  0  0
    0.9614    3.8498    0.6450 C   0  0  2  0  0  0  0  0  0  0  0  0
    1.0541    2.3891    0.6422 N   0  0  0  0  0  0  0  0  0  0  0  0
    2.2495    1.7788    0.8470 C   0  0  0  0  0  0  0  0  0  0  0  0
    3.3185    2.3687    1.0012 O   0  0  0  0  0  0  0  0  0  0  0  0
    2.2355    0.2676    0.9178 C   0  0  0  0  0  0  0  0  0  0  0  0
    2.2724   -0.3545    2.1675 C   0  0  0  0  0  0  0  0  0  0  0  0
    2.3351   -1.7457    2.2286 C   0  0  0  0  0  0  0  0  0  0  0  0
    2.3655   -2.5201    1.1388 N   0  0  0  0  0  0  0  0  0  0  0  0
    2.3405   -1.9369   -0.0586 C   0  0  0  0  0  0  0  0  0  0  0  0
    2.2762   -0.5428   -0.2214 C   0  0  0  0  0  0  0  0  0  0  0  0
    2.2368    0.2050   -1.7997 Cl  0  0  0  0  0  0  0  0  0  0  0  0
    2.3704   -2.8858   -1.2560 C   0  0  0  0  0  0  0  0  0  0  0  0
    2.4380   -4.1677   -0.8760 F   0  0  0  0  0  0  0  0  0  0  0  0
    3.4354   -2.6382   -2.0562 F   0  0  0  0  0  0  0  0  0  0  0  0
    1.2522   -2.7434   -2.0150 F   0  0  0  0  0  0  0  0  0  0  0  0
    0.0829    4.2993    1.7950 C   0  0  0  0  0  0  0  0  0  0  0  0
    0.2404    5.5697    2.1760 N   0  0  0  0  0  0  0  0  0  0  0  0
    0.5668    7.5427    4.1461 H   0  0  0  0  0  0  0  0  0  0  0  0
   -1.1951    7.7604    4.2405 H   0  0  0  0  0  0  0  0  0  0  0  0
   -0.3067    8.1085    2.7255 H   0  0  0  0  0  0  0  0  0  0  0  0
   -3.5817    0.2553    4.9996 H   0  0  0  0  0  0  0  0  0  0  0  0
   -5.4473    1.5542    6.0846 H   0  0  0  0  0  0  0  0  0  0  0  0
   -3.8035    5.0803    4.6636 H   0  0  0  0  0  0  0  0  0  0  0  0
   -0.6893    1.3302    2.6248 H   0  0  0  0  0  0  0  0  0  0  0  0
   -2.0920    1.7834    1.7039 H   0  0  0  0  0  0  0  0  0  0  0  0
   -0.0976    0.6531    0.4953 H   0  0  0  0  0  0  0  0  0  0  0  0
   -0.3926    1.7269   -1.5846 H   0  0  0  0  0  0  0  0  0  0  0  0
   -1.9586    1.7376   -0.7769 H   0  0  0  0  0  0  0  0  0  0  0  0
   -1.3632    3.9284   -1.9424 H   0  0  0  0  0  0  0  0  0  0  0  0
   -1.7382    4.1269   -0.2403 H   0  0  0  0  0  0  0  0  0  0  0  0
    1.0653    4.0339   -1.4920 H   0  0  0  0  0  0  0  0  0  0  0  0
    0.3060    5.4171   -0.6892 H   0  0  0  0  0  0  0  0  0  0  0  0
    1.9629    4.2541    0.7871 H   0  0  0  0  0  0  0  0  0  0  0  0
    2.2599    0.2423    3.0749 H   0  0  0  0  0  0  0  0  0  0  0  0
    2.3622   -2.2617    3.1858 H   0  0  0  0  0  0  0  0  0  0  0  0
  1  2  1  0
  1 34  1  0
  1 35  1  0
  1 36  1  0
  2  3  2  0
  2 33  1  0
  3  4  1  0
  4  5  1  0
  4 11  2  0
  5  6  2  0
  5 10  1  0
  6  7  1  0
  7  8  2  0
  7 37  1  0
  8  9  1  0
  8 38  1  0
  9 10  2  0
 10 39  1  0
 11 12  1  0
 11 32  1  0
 12 13  1  0
 12 40  1  0
 12 41  1  0
 13 14  1  0
 13 18  1  0
 13 42  1  6
 14 15  1  0
 14 43  1  0
 14 44  1  0
 15 16  1  0
 15 45  1  0
 15 46  1  0
 16 17  1  0
 16 47  1  0
 16 48  1  0
 17 18  1  0
 17 32  1  0
 17 49  1  1
 18 19  1  0
 19 20  2  0
 19 21  1  0
 21 22  2  0
 21 26  1  0
 22 23  1  0
 22 50  1  0
 23 24  2  0
 23 51  1  0
 24 25  1  0
 25 26  2  0
 25 28  1  0
 26 27  1  0
 28 29  1  0
 28 30  1  0
 28 31  1  0
 32 33  2  0
M  END
>  <group_name>  (1) 
JNS

>  <molecule_index>  (1) 
02240

>  <conformer_index>  (1) 
05

>  <method>  (1) 
b3lyp-d3bj

>  <basis>  (1) 
dzvp

>  <program>  (1) 
psi4

>  <initial_energy>  (1) 
-1263091.0902662259 kilocalorie / mole

>  <final_energy>  (1) 
-1263143.3968252284 kilocalorie / mole

$$$$
