JNS-01356-01
     RDKit          3D

 33 36  0  0  0  0  0  0  0  0999 V2000
   -1.5122   -3.4671    0.6921 F   0  0  0  0  0  0  0  0  0  0  0  0
   -0.4794   -2.6256    0.7943 C   0  0  0  0  0  0  0  0  0  0  0  0
    0.0296   -2.7403    2.0478 F   0  0  0  0  0  0  0  0  0  0  0  0
    0.4846   -3.0274   -0.0677 F   0  0  0  0  0  0  0  0  0  0  0  0
   -0.9090   -1.2055    0.5034 C   0  0  0  0  0  0  0  0  0  0  0  0
   -2.1681   -0.8419    0.4461 N   0  0  0  0  0  0  0  0  0  0  0  0
   -2.1303    0.5080    0.1404 C   0  0  0  0  0  0  0  0  0  0  0  0
   -0.7858    0.9416    0.0134 C   0  0  0  0  0  0  0  0  0  0  0  0
   -0.3676    2.1611   -0.2895 N   0  0  0  0  0  0  0  0  0  0  0  0
   -1.3566    3.0424   -0.4796 C   0  0  0  0  0  0  0  0  0  0  0  0
   -2.7297    2.7487   -0.3779 C   0  0  0  0  0  0  0  0  0  0  0  0
   -3.1401    1.4517   -0.0609 C   0  0  0  0  0  0  0  0  0  0  0  0
   -0.8832    4.4409   -0.8339 C   0  0  0  0  0  0  0  0  0  0  0  0
   -0.1233    4.9728    0.1485 F   0  0  0  0  0  0  0  0  0  0  0  0
   -1.9252    5.2834   -1.0403 F   0  0  0  0  0  0  0  0  0  0  0  0
   -0.1387    4.4384   -1.9637 F   0  0  0  0  0  0  0  0  0  0  0  0
   -0.0027   -0.1823    0.2608 N   0  0  0  0  0  0  0  0  0  0  0  0
    1.4286   -0.2102    0.2438 C   0  0  0  0  0  0  0  0  0  0  0  0
    2.0838    0.1122   -0.9524 C   0  0  0  0  0  0  0  0  0  0  0  0
    3.4617    0.0862   -0.8836 C   0  0  0  0  0  0  0  0  0  0  0  0
    4.2075   -0.2410    0.2638 C   0  0  0  0  0  0  0  0  0  0  0  0
    5.5707   -0.1749   -0.0310 N   0  0  0  0  0  0  0  0  0  0  0  0
    5.5928    0.1707   -1.2752 C   0  0  0  0  0  0  0  0  0  0  0  0
    6.6703    0.3652   -2.0280 O   0  0  0  0  0  0  0  0  0  0  0  0
    4.3743    0.3563   -1.8933 O   0  0  0  0  0  0  0  0  0  0  0  0
    3.5180   -0.5516    1.4379 C   0  0  0  0  0  0  0  0  0  0  0  0
    4.4582   -0.9938    3.0291 Br  0  0  0  0  0  0  0  0  0  0  0  0
    2.1218   -0.5208    1.4228 C   0  0  0  0  0  0  0  0  0  0  0  0
   -3.4579    3.5322   -0.5503 H   0  0  0  0  0  0  0  0  0  0  0  0
   -4.1898    1.1869    0.0223 H   0  0  0  0  0  0  0  0  0  0  0  0
    1.5394    0.3682   -1.8537 H   0  0  0  0  0  0  0  0  0  0  0  0
    6.3929    0.6310   -2.9220 H   0  0  0  0  0  0  0  0  0  0  0  0
    1.5679   -0.7385    2.3283 H   0  0  0  0  0  0  0  0  0  0  0  0
  1  2  1  0
  2  3  1  0
  2  4  1  0
  2  5  1  0
  5  6  2  0
  5 17  1  0
  6  7  1  0
  7  8  2  0
  7 12  1  0
  8  9  1  0
  8 17  1  0
  9 10  2  0
 10 11  1  0
 10 13  1  0
 11 12  2  0
 11 29  1  0
 12 30  1  0
 13 14  1  0
 13 15  1  0
 13 16  1  0
 17 18  1  0
 18 19  2  0
 18 28  1  0
 19 20  1  0
 19 31  1  0
 20 21  2  0
 20 25  1  0
 21 22  1  0
 21 26  1  0
 22 23  2  0
 23 24  1  0
 23 25  1  0
 24 32  1  0
 26 27  1  0
 26 28  2  0
 28 33  1  0
M  END
>  <group_name>  (1) 
JNS

>  <molecule_index>  (1) 
01356

>  <conformer_index>  (1) 
01

>  <method>  (1) 
b3lyp-d3bj

>  <basis>  (1) 
dzvp

>  <program>  (1) 
psi4

>  <initial_energy>  (1) 
-2583483.3375572 kilocalorie / mole

>  <final_energy>  (1) 
-2583542.3050824585 kilocalorie / mole

$$$$
