JNS-02392-07
     RDKit          3D

 48 51  0  0  0  0  0  0  0  0999 V2000
   -0.0284    2.0027   -1.2747 C   0  0  0  0  0  0  0  0  0  0  0  0
    0.1872    0.6831   -0.5884 C   0  0  0  0  0  0  0  0  0  0  0  0
    0.5018    0.5863    0.7770 C   0  0  0  0  0  0  0  0  0  0  0  0
    0.7378   -0.6889    1.3014 C   0  0  0  0  0  0  0  0  0  0  0  0
    1.0748   -0.9064    2.7532 C   0  0  0  0  0  0  0  0  0  0  0  0
    0.6979   -1.7856    0.5282 N   0  0  0  0  0  0  0  0  0  0  0  0
    0.3769   -1.5877   -0.7678 C   0  0  0  0  0  0  0  0  0  0  0  0
    0.0980   -0.4078   -1.3568 N   0  0  0  0  0  0  0  0  0  0  0  0
    0.3384   -2.6954   -1.5636 N   0  0  0  0  0  0  0  0  0  0  0  0
    0.9311   -4.0042   -1.2578 C   0  0  0  0  0  0  0  0  0  0  0  0
    1.3165   -4.1450   -2.7565 C   0  0  2  0  0  0  0  0  0  0  0  0
    2.8116   -4.0372   -3.0578 C   0  0  0  0  0  0  0  0  0  0  0  0
    3.4407   -2.7539   -2.5031 C   0  0  0  0  0  0  0  0  0  0  0  0
    2.7057   -1.5566   -2.9516 N   0  0  0  0  0  0  0  0  0  0  0  0
    1.4447   -1.7222   -3.6728 C   0  0  0  0  0  0  0  0  0  0  0  0
    0.5790   -2.7932   -3.0195 C   0  0  2  0  0  0  0  0  0  0  0  0
    3.1676   -0.2973   -2.7191 C   0  0  0  0  0  0  0  0  0  0  0  0
    2.6491    0.7301   -3.1562 O   0  0  0  0  0  0  0  0  0  0  0  0
    4.3349   -0.1793   -1.7633 C   0  0  0  0  0  0  0  0  0  0  0  0
    4.0369   -0.1270   -0.3943 C   0  0  0  0  0  0  0  0  0  0  0  0
    5.0589    0.1021    0.5212 C   0  0  0  0  0  0  0  0  0  0  0  0
    6.3609    0.2741    0.0377 C   0  0  0  0  0  0  0  0  0  0  0  0
    6.6649    0.2163   -1.2607 N   0  0  0  0  0  0  0  0  0  0  0  0
    5.6748   -0.0092   -2.1311 C   0  0  0  0  0  0  0  0  0  0  0  0
    6.1400   -0.0457   -3.5808 C   0  0  0  0  0  0  0  0  0  0  0  0
    5.2183   -0.6221   -4.3960 F   0  0  0  0  0  0  0  0  0  0  0  0
    6.3759    1.1962   -4.0560 F   0  0  0  0  0  0  0  0  0  0  0  0
    7.2793   -0.7569   -3.7157 F   0  0  0  0  0  0  0  0  0  0  0  0
   -0.0187    2.8365   -0.5683 H   0  0  0  0  0  0  0  0  0  0  0  0
   -0.9819    1.9955   -1.8113 H   0  0  0  0  0  0  0  0  0  0  0  0
    0.7643    2.1461   -2.0165 H   0  0  0  0  0  0  0  0  0  0  0  0
    0.5618    1.4712    1.4018 H   0  0  0  0  0  0  0  0  0  0  0  0
    0.3014   -1.5195    3.2273 H   0  0  0  0  0  0  0  0  0  0  0  0
    1.1573    0.0378    3.2969 H   0  0  0  0  0  0  0  0  0  0  0  0
    2.0175   -1.4559    2.8425 H   0  0  0  0  0  0  0  0  0  0  0  0
    0.1963   -4.7298   -0.8934 H   0  0  0  0  0  0  0  0  0  0  0  0
    1.7589   -3.9584   -0.5439 H   0  0  0  0  0  0  0  0  0  0  0  0
    0.8803   -5.0107   -3.2599 H   0  0  0  0  0  0  0  0  0  0  0  0
    2.9677   -4.0806   -4.1416 H   0  0  0  0  0  0  0  0  0  0  0  0
    3.3483   -4.8903   -2.6282 H   0  0  0  0  0  0  0  0  0  0  0  0
    3.4551   -2.7907   -1.4085 H   0  0  0  0  0  0  0  0  0  0  0  0
    4.4801   -2.6943   -2.8375 H   0  0  0  0  0  0  0  0  0  0  0  0
    1.6265   -2.0182   -4.7154 H   0  0  0  0  0  0  0  0  0  0  0  0
    0.9421   -0.7580   -3.6759 H   0  0  0  0  0  0  0  0  0  0  0  0
   -0.3546   -2.8834   -3.5855 H   0  0  0  0  0  0  0  0  0  0  0  0
    3.0115   -0.2534   -0.0622 H   0  0  0  0  0  0  0  0  0  0  0  0
    4.8561    0.1522    1.5871 H   0  0  0  0  0  0  0  0  0  0  0  0
    7.1894    0.4636    0.7177 H   0  0  0  0  0  0  0  0  0  0  0  0
  1  2  1  0
  1 29  1  0
  1 30  1  0
  1 31  1  0
  2  3  2  0
  2  8  1  0
  3  4  1  0
  3 32  1  0
  4  5  1  0
  4  6  2  0
  5 33  1  0
  5 34  1  0
  5 35  1  0
  6  7  1  0
  7  8  2  0
  7  9  1  0
  9 10  1  0
  9 16  1  0
 10 11  1  0
 10 36  1  0
 10 37  1  0
 11 12  1  0
 11 16  1  0
 11 38  1  6
 12 13  1  0
 12 39  1  0
 12 40  1  0
 13 14  1  0
 13 41  1  0
 13 42  1  0
 14 15  1  0
 14 17  1  0
 15 16  1  0
 15 43  1  0
 15 44  1  0
 16 45  1  6
 17 18  2  0
 17 19  1  0
 19 20  2  0
 19 24  1  0
 20 21  1  0
 20 46  1  0
 21 22  2  0
 21 47  1  0
 22 23  1  0
 22 48  1  0
 23 24  2  0
 24 25  1  0
 25 26  1  0
 25 27  1  0
 25 28  1  0
M  END
>  <group_name>  (1) 
JNS

>  <molecule_index>  (1) 
02392

>  <conformer_index>  (1) 
07

>  <method>  (1) 
b3lyp-d3bj

>  <basis>  (1) 
dzvp

>  <program>  (1) 
psi4

>  <initial_energy>  (1) 
-868962.542590121 kilocalorie / mole

>  <final_energy>  (1) 
-869022.0479084252 kilocalorie / mole

$$$$
