JNS-01861-05
     RDKit          3D

 34 37  0  0  0  0  0  0  0  0999 V2000
   -2.6788   -2.0233   -1.5645 C   0  0  0  0  0  0  0  0  0  0  0  0
   -2.0139   -1.0641   -0.6156 C   0  0  0  0  0  0  0  0  0  0  0  0
   -0.6501   -1.0127   -0.4278 C   0  0  0  0  0  0  0  0  0  0  0  0
   -0.0273   -0.0899    0.4777 C   0  0  0  0  0  0  0  0  0  0  0  0
   -0.7604    0.8264    1.1994 C   0  0  0  0  0  0  0  0  0  0  0  0
   -2.1662    0.8160    1.0145 C   0  0  0  0  0  0  0  0  0  0  0  0
   -2.7902   -0.1270    0.1280 C   0  0  0  0  0  0  0  0  0  0  0  0
   -4.1341    0.0236    0.1038 N   0  0  0  0  0  0  0  0  0  0  0  0
   -4.3486    1.0431    0.9614 N   0  0  0  0  0  0  0  0  0  0  0  0
   -3.2322    1.5600    1.5354 C   0  0  0  0  0  0  0  0  0  0  0  0
    1.3917   -0.1433    0.6033 N   0  0  0  0  0  0  0  0  0  0  0  0
    2.1540   -1.3071    0.5880 C   0  0  0  0  0  0  0  0  0  0  0  0
    3.4927   -1.0174    0.6968 C   0  0  0  0  0  0  0  0  0  0  0  0
    3.5976    0.4099    0.7902 C   0  0  0  0  0  0  0  0  0  0  0  0
    2.2649    0.9299    0.7326 C   0  0  0  0  0  0  0  0  0  0  0  0
    1.9254    2.2119    0.7887 N   0  0  0  0  0  0  0  0  0  0  0  0
    2.9456    3.0668    0.9097 C   0  0  0  0  0  0  0  0  0  0  0  0
    4.2990    2.6940    0.9789 C   0  0  0  0  0  0  0  0  0  0  0  0
    4.6353    1.3408    0.9175 C   0  0  0  0  0  0  0  0  0  0  0  0
    2.5313    4.5222    0.9770 C   0  0  0  0  0  0  0  0  0  0  0  0
    1.6995    4.7601    2.0214 F   0  0  0  0  0  0  0  0  0  0  0  0
    3.6016    5.3445    1.1258 F   0  0  0  0  0  0  0  0  0  0  0  0
    1.8805    4.9154   -0.1429 F   0  0  0  0  0  0  0  0  0  0  0  0
   -3.2498   -1.4814   -2.3260 H   0  0  0  0  0  0  0  0  0  0  0  0
   -1.9448   -2.6603   -2.0651 H   0  0  0  0  0  0  0  0  0  0  0  0
   -3.3921   -2.6623   -1.0327 H   0  0  0  0  0  0  0  0  0  0  0  0
   -0.0131   -1.6770   -1.0053 H   0  0  0  0  0  0  0  0  0  0  0  0
   -0.2768    1.5313    1.8641 H   0  0  0  0  0  0  0  0  0  0  0  0
   -5.3017    1.3491    1.1128 H   0  0  0  0  0  0  0  0  0  0  0  0
   -3.2735    2.3826    2.2357 H   0  0  0  0  0  0  0  0  0  0  0  0
    1.6626   -2.2681    0.5276 H   0  0  0  0  0  0  0  0  0  0  0  0
    4.2959   -1.7415    0.7240 H   0  0  0  0  0  0  0  0  0  0  0  0
    5.0640    3.4546    1.0814 H   0  0  0  0  0  0  0  0  0  0  0  0
    5.6740    1.0251    0.9685 H   0  0  0  0  0  0  0  0  0  0  0  0
  1  2  1  0
  1 24  1  0
  1 25  1  0
  1 26  1  0
  2  3  2  0
  2  7  1  0
  3  4  1  0
  3 27  1  0
  4  5  2  0
  4 11  1  0
  5  6  1  0
  5 28  1  0
  6  7  1  0
  6 10  2  0
  7  8  2  0
  8  9  1  0
  9 10  1  0
  9 29  1  0
 10 30  1  0
 11 12  1  0
 11 15  1  0
 12 13  2  0
 12 31  1  0
 13 14  1  0
 13 32  1  0
 14 15  2  0
 14 19  1  0
 15 16  1  0
 16 17  2  0
 17 18  1  0
 17 20  1  0
 18 19  2  0
 18 33  1  0
 19 34  1  0
 20 21  1  0
 20 22  1  0
 20 23  1  0
M  END
>  <group_name>  (1) 
JNS

>  <molecule_index>  (1) 
01861

>  <conformer_index>  (1) 
05

>  <method>  (1) 
b3lyp-d3bj

>  <basis>  (1) 
dzvp

>  <program>  (1) 
psi4

>  <initial_energy>  (1) 
-712237.228305262 kilocalorie / mole

>  <final_energy>  (1) 
-712273.7677016223 kilocalorie / mole

$$$$
