JNS-02239-05
     RDKit          3D

 53 57  0  0  0  0  0  0  0  0999 V2000
   -3.5465   -0.1349   -1.0441 C   0  0  0  0  0  0  0  0  0  0  0  0
   -2.1228    0.1472   -0.9777 N   0  0  0  0  0  0  0  0  0  0  0  0
   -1.2308   -0.2696   -0.0533 C   0  0  0  0  0  0  0  0  0  0  0  0
    0.0077    0.2811   -0.3939 C   0  0  0  0  0  0  0  0  0  0  0  0
   -0.2723    1.0248   -1.5786 C   0  0  0  0  0  0  0  0  0  0  0  0
   -1.5563    0.9387   -1.9259 N   0  0  0  0  0  0  0  0  0  0  0  0
    1.2397    0.0304    0.3582 C   0  0  0  0  0  0  0  0  0  0  0  0
    2.4362    0.7654    0.1980 C   0  0  0  0  0  0  0  0  0  0  0  0
    2.5750    1.9595   -0.7191 C   0  0  0  0  0  0  0  0  0  0  0  0
    3.8126    2.7840   -0.3558 C   0  0  1  0  0  0  0  0  0  0  0  0
    3.6407    3.5334    1.0029 C   0  0  0  0  0  0  0  0  0  0  0  0
    4.8787    3.3718    1.8940 C   0  0  0  0  0  0  0  0  0  0  0  0
    5.1690    1.8877    2.1842 C   0  0  0  0  0  0  0  0  0  0  0  0
    4.8786    1.0190    0.9234 C   0  0  2  0  0  0  0  0  0  0  0  0
    4.9577    1.8656   -0.2700 N   0  0  0  0  0  0  0  0  0  0  0  0
    6.1717    2.0423   -0.8560 C   0  0  0  0  0  0  0  0  0  0  0  0
    7.1961    1.4566   -0.4994 O   0  0  0  0  0  0  0  0  0  0  0  0
    6.2700    3.0145   -2.0098 C   0  0  0  0  0  0  0  0  0  0  0  0
    7.2475    4.0149   -1.9734 C   0  0  0  0  0  0  0  0  0  0  0  0
    7.3944    4.8713   -3.0646 C   0  0  0  0  0  0  0  0  0  0  0  0
    6.6523    4.7771   -4.1755 N   0  0  0  0  0  0  0  0  0  0  0  0
    5.7351    3.8140   -4.2341 C   0  0  0  0  0  0  0  0  0  0  0  0
    5.5202    2.9227   -3.1786 C   0  0  0  0  0  0  0  0  0  0  0  0
    4.5779    1.9647   -3.2998 F   0  0  0  0  0  0  0  0  0  0  0  0
    4.9010    3.7053   -5.5032 C   0  0  0  0  0  0  0  0  0  0  0  0
    5.0685    2.4972   -6.0947 F   0  0  0  0  0  0  0  0  0  0  0  0
    3.5773    3.8304   -5.2196 F   0  0  0  0  0  0  0  0  0  0  0  0
    5.2176    4.6497   -6.3971 F   0  0  0  0  0  0  0  0  0  0  0  0
    3.5171    0.3509    0.9858 C   0  0  0  0  0  0  0  0  0  0  0  0
    3.4323   -0.6480    1.8761 N   0  0  0  0  0  0  0  0  0  0  0  0
    2.2447   -1.2606    1.9843 C   0  0  0  0  0  0  0  0  0  0  0  0
    2.1335   -2.3896    2.9746 C   0  0  0  0  0  0  0  0  0  0  0  0
    1.1583   -0.9712    1.2609 N   0  0  0  0  0  0  0  0  0  0  0  0
   -3.7885   -0.5718   -2.0155 H   0  0  0  0  0  0  0  0  0  0  0  0
   -3.8050   -0.8396   -0.2523 H   0  0  0  0  0  0  0  0  0  0  0  0
   -4.1181    0.7876   -0.9131 H   0  0  0  0  0  0  0  0  0  0  0  0
   -1.4965   -0.9162    0.7700 H   0  0  0  0  0  0  0  0  0  0  0  0
    0.3955    1.5908   -2.2115 H   0  0  0  0  0  0  0  0  0  0  0  0
    2.6535    1.6345   -1.7612 H   0  0  0  0  0  0  0  0  0  0  0  0
    1.6885    2.5977   -0.6412 H   0  0  0  0  0  0  0  0  0  0  0  0
    4.0095    3.5096   -1.1439 H   0  0  0  0  0  0  0  0  0  0  0  0
    2.7643    3.1403    1.5298 H   0  0  0  0  0  0  0  0  0  0  0  0
    3.4406    4.5910    0.8062 H   0  0  0  0  0  0  0  0  0  0  0  0
    4.7407    3.9182    2.8323 H   0  0  0  0  0  0  0  0  0  0  0  0
    5.7433    3.8268    1.3964 H   0  0  0  0  0  0  0  0  0  0  0  0
    6.2143    1.7603    2.4760 H   0  0  0  0  0  0  0  0  0  0  0  0
    4.5536    1.5212    3.0102 H   0  0  0  0  0  0  0  0  0  0  0  0
    5.6278    0.2338    0.8352 H   0  0  0  0  0  0  0  0  0  0  0  0
    7.8883    4.1051   -1.1019 H   0  0  0  0  0  0  0  0  0  0  0  0
    8.1402    5.6625   -3.0523 H   0  0  0  0  0  0  0  0  0  0  0  0
    1.1357   -2.4127    3.4187 H   0  0  0  0  0  0  0  0  0  0  0  0
    2.2904   -3.3466    2.4633 H   0  0  0  0  0  0  0  0  0  0  0  0
    2.8928   -2.2926    3.7525 H   0  0  0  0  0  0  0  0  0  0  0  0
  1  2  1  0
  1 34  1  0
  1 35  1  0
  1 36  1  0
  2  3  1  0
  2  6  1  0
  3  4  2  0
  3 37  1  0
  4  5  1  0
  4  7  1  0
  5  6  2  0
  5 38  1  0
  7  8  1  0
  7 33  2  0
  8  9  1  0
  8 29  2  0
  9 10  1  0
  9 39  1  0
  9 40  1  0
 10 11  1  0
 10 15  1  0
 10 41  1  6
 11 12  1  0
 11 42  1  0
 11 43  1  0
 12 13  1  0
 12 44  1  0
 12 45  1  0
 13 14  1  0
 13 46  1  0
 13 47  1  0
 14 15  1  0
 14 29  1  0
 14 48  1  6
 15 16  1  0
 16 17  2  0
 16 18  1  0
 18 19  2  0
 18 23  1  0
 19 20  1  0
 19 49  1  0
 20 21  2  0
 20 50  1  0
 21 22  1  0
 22 23  2  0
 22 25  1  0
 23 24  1  0
 25 26  1  0
 25 27  1  0
 25 28  1  0
 29 30  1  0
 30 31  2  0
 31 32  1  0
 31 33  1  0
 32 51  1  0
 32 52  1  0
 32 53  1  0
M  END
>  <group_name>  (1) 
JNS

>  <molecule_index>  (1) 
02239

>  <conformer_index>  (1) 
05

>  <method>  (1) 
b3lyp-d3bj

>  <basis>  (1) 
dzvp

>  <program>  (1) 
psi4

>  <initial_energy>  (1) 
-1037749.7982067032 kilocalorie / mole

>  <final_energy>  (1) 
-1037798.4467556694 kilocalorie / mole

$$$$
