JNS-02466-08
     RDKit          3D

 53 56  0  0  0  0  0  0  0  0999 V2000
    0.0542   -3.7526   -1.2377 C   0  0  0  0  0  0  0  0  0  0  0  0
    0.3830   -2.2629   -1.4303 C   0  0  2  0  0  0  0  0  0  0  0  0
    0.9568   -1.6196   -0.2369 N   0  0  0  0  0  0  0  0  0  0  0  0
    1.3536   -0.2268   -0.5462 C   0  0  0  0  0  0  0  0  0  0  0  0
    2.4698    0.2645    0.3734 C   0  0  0  0  0  0  0  0  0  0  0  0
    3.7548   -0.5647    0.1817 C   0  0  0  0  0  0  0  0  0  0  0  0
    3.4252   -2.0585   -0.0921 C   0  0  2  0  0  0  0  0  0  0  0  0
    2.0096   -2.3626    0.4599 C   0  0  0  0  0  0  0  0  0  0  0  0
    4.4425   -3.0180    0.4690 C   0  0  0  0  0  0  0  0  0  0  0  0
    4.7504   -3.0391    1.8393 C   0  0  0  0  0  0  0  0  0  0  0  0
    5.6613   -3.9860    2.2958 C   0  0  0  0  0  0  0  0  0  0  0  0
    6.2792   -4.8829    1.5225 N   0  0  0  0  0  0  0  0  0  0  0  0
    5.9978   -4.8724    0.2112 C   0  0  0  0  0  0  0  0  0  0  0  0
    6.7168   -5.8889   -0.6385 C   0  0  0  0  0  0  0  0  0  0  0  0
    5.0843   -3.9598   -0.3399 C   0  0  0  0  0  0  0  0  0  0  0  0
    6.0278   -4.0699    3.7673 C   0  0  0  0  0  0  0  0  0  0  0  0
    5.7072   -5.2740    4.2934 F   0  0  0  0  0  0  0  0  0  0  0  0
    5.3778   -3.1281    4.5015 F   0  0  0  0  0  0  0  0  0  0  0  0
    7.3521   -3.8830    3.9653 F   0  0  0  0  0  0  0  0  0  0  0  0
   -0.8992   -1.5432   -1.8333 C   0  0  0  0  0  0  0  0  0  0  0  0
   -1.1285   -1.4378   -3.1511 N   0  0  0  0  0  0  0  0  0  0  0  0
   -2.2565   -0.8806   -3.5654 C   0  0  0  0  0  0  0  0  0  0  0  0
   -3.2274   -0.3621   -2.6839 C   0  0  0  0  0  0  0  0  0  0  0  0
   -4.3798    0.2525   -3.1213 O   0  0  0  0  0  0  0  0  0  0  0  0
   -4.3303    0.6221   -4.5046 C   0  0  0  0  0  0  0  0  0  0  0  0
   -3.7652   -0.5204   -5.3306 C   0  0  0  0  0  0  0  0  0  0  0  0
   -2.4228   -0.8184   -4.9259 O   0  0  0  0  0  0  0  0  0  0  0  0
   -2.9950   -0.4841   -1.3166 C   0  0  0  0  0  0  0  0  0  0  0  0
   -1.8163   -1.0898   -0.8800 C   0  0  0  0  0  0  0  0  0  0  0  0
   -0.5397   -4.0937   -2.0897 H   0  0  0  0  0  0  0  0  0  0  0  0
   -0.5298   -3.9080   -0.3247 H   0  0  0  0  0  0  0  0  0  0  0  0
    0.9513   -4.3768   -1.1946 H   0  0  0  0  0  0  0  0  0  0  0  0
    1.0610   -2.1772   -2.2973 H   0  0  0  0  0  0  0  0  0  0  0  0
    0.4773    0.4244   -0.4670 H   0  0  0  0  0  0  0  0  0  0  0  0
    1.7033   -0.1512   -1.5915 H   0  0  0  0  0  0  0  0  0  0  0  0
    2.6675    1.3207    0.1638 H   0  0  0  0  0  0  0  0  0  0  0  0
    2.1308    0.2140    1.4140 H   0  0  0  0  0  0  0  0  0  0  0  0
    4.3894   -0.4710    1.0683 H   0  0  0  0  0  0  0  0  0  0  0  0
    4.3365   -0.1682   -0.6574 H   0  0  0  0  0  0  0  0  0  0  0  0
    3.3831   -2.2144   -1.1758 H   0  0  0  0  0  0  0  0  0  0  0  0
    1.9839   -2.1090    1.5266 H   0  0  0  0  0  0  0  0  0  0  0  0
    1.8021   -3.4296    0.4060 H   0  0  0  0  0  0  0  0  0  0  0  0
    4.2944   -2.3417    2.5328 H   0  0  0  0  0  0  0  0  0  0  0  0
    7.7979   -5.7254   -0.5852 H   0  0  0  0  0  0  0  0  0  0  0  0
    6.5244   -6.8979   -0.2611 H   0  0  0  0  0  0  0  0  0  0  0  0
    6.4054   -5.8373   -1.6847 H   0  0  0  0  0  0  0  0  0  0  0  0
    4.8792   -3.9862   -1.4073 H   0  0  0  0  0  0  0  0  0  0  0  0
   -3.7088    1.5189   -4.6234 H   0  0  0  0  0  0  0  0  0  0  0  0
   -5.3566    0.8526   -4.7987 H   0  0  0  0  0  0  0  0  0  0  0  0
   -3.7130   -0.2539   -6.3884 H   0  0  0  0  0  0  0  0  0  0  0  0
   -4.3902   -1.4150   -5.2150 H   0  0  0  0  0  0  0  0  0  0  0  0
   -3.7330   -0.0945   -0.6205 H   0  0  0  0  0  0  0  0  0  0  0  0
   -1.5868   -1.1948    0.1751 H   0  0  0  0  0  0  0  0  0  0  0  0
  1  2  1  0
  1 30  1  0
  1 31  1  0
  1 32  1  0
  2  3  1  0
  2 20  1  0
  2 33  1  6
  3  4  1  0
  3  8  1  0
  4  5  1  0
  4 34  1  0
  4 35  1  0
  5  6  1  0
  5 36  1  0
  5 37  1  0
  6  7  1  0
  6 38  1  0
  6 39  1  0
  7  8  1  0
  7  9  1  0
  7 40  1  6
  8 41  1  0
  8 42  1  0
  9 10  2  0
  9 15  1  0
 10 11  1  0
 10 43  1  0
 11 12  2  0
 11 16  1  0
 12 13  1  0
 13 14  1  0
 13 15  2  0
 14 44  1  0
 14 45  1  0
 14 46  1  0
 15 47  1  0
 16 17  1  0
 16 18  1  0
 16 19  1  0
 20 21  2  0
 20 29  1  0
 21 22  1  0
 22 23  2  0
 22 27  1  0
 23 24  1  0
 23 28  1  0
 24 25  1  0
 25 26  1  0
 25 48  1  0
 25 49  1  0
 26 27  1  0
 26 50  1  0
 26 51  1  0
 28 29  2  0
 28 52  1  0
 29 53  1  0
M  END
>  <group_name>  (1) 
JNS

>  <molecule_index>  (1) 
02466

>  <conformer_index>  (1) 
08

>  <method>  (1) 
b3lyp-d3bj

>  <basis>  (1) 
dzvp

>  <program>  (1) 
psi4

>  <initial_energy>  (1) 
-896781.3986063283 kilocalorie / mole

>  <final_energy>  (1) 
-896841.1377230695 kilocalorie / mole

$$$$
