JNS-01861-01
     RDKit          3D

 34 37  0  0  0  0  0  0  0  0999 V2000
   -2.7497   -2.6198    0.2603 C   0  0  0  0  0  0  0  0  0  0  0  0
   -2.0410   -1.3018    0.1074 C   0  0  0  0  0  0  0  0  0  0  0  0
   -0.6688   -1.1813    0.0879 C   0  0  0  0  0  0  0  0  0  0  0  0
   -0.0044    0.0827   -0.0549 C   0  0  0  0  0  0  0  0  0  0  0  0
   -0.7051    1.2645   -0.1547 C   0  0  0  0  0  0  0  0  0  0  0  0
   -2.1200    1.1798   -0.1167 C   0  0  0  0  0  0  0  0  0  0  0  0
   -2.7837   -0.0893   -0.0011 C   0  0  0  0  0  0  0  0  0  0  0  0
   -4.1291    0.0493    0.0064 N   0  0  0  0  0  0  0  0  0  0  0  0
   -4.3054    1.3826   -0.1036 N   0  0  0  0  0  0  0  0  0  0  0  0
   -3.1632    2.1121   -0.1802 C   0  0  0  0  0  0  0  0  0  0  0  0
    1.4210    0.0806   -0.0814 N   0  0  0  0  0  0  0  0  0  0  0  0
    2.2092   -0.8871   -0.6960 C   0  0  0  0  0  0  0  0  0  0  0  0
    3.5445   -0.6192   -0.5142 C   0  0  0  0  0  0  0  0  0  0  0  0
    3.6199    0.5878    0.2567 C   0  0  0  0  0  0  0  0  0  0  0  0
    2.2738    1.0048    0.5096 C   0  0  0  0  0  0  0  0  0  0  0  0
    1.9068    2.0824    1.1923 N   0  0  0  0  0  0  0  0  0  0  0  0
    2.9112    2.8219    1.6727 C   0  0  0  0  0  0  0  0  0  0  0  0
    4.2751    2.5303    1.4985 C   0  0  0  0  0  0  0  0  0  0  0  0
    4.6402    1.3920    0.7781 C   0  0  0  0  0  0  0  0  0  0  0  0
    2.4662    4.0482    2.4425 C   0  0  0  0  0  0  0  0  0  0  0  0
    1.7238    3.7234    3.5267 F   0  0  0  0  0  0  0  0  0  0  0  0
    3.5234    4.7757    2.8863 F   0  0  0  0  0  0  0  0  0  0  0  0
    1.7089    4.8739    1.6781 F   0  0  0  0  0  0  0  0  0  0  0  0
   -3.3906   -2.6140    1.1484 H   0  0  0  0  0  0  0  0  0  0  0  0
   -3.4037   -2.8098   -0.5977 H   0  0  0  0  0  0  0  0  0  0  0  0
   -2.0388   -3.4457    0.3474 H   0  0  0  0  0  0  0  0  0  0  0  0
   -0.0594   -2.0724    0.2118 H   0  0  0  0  0  0  0  0  0  0  0  0
   -0.1917    2.2140   -0.2415 H   0  0  0  0  0  0  0  0  0  0  0  0
   -5.2522    1.7409   -0.1174 H   0  0  0  0  0  0  0  0  0  0  0  0
   -3.1734    3.1898   -0.2660 H   0  0  0  0  0  0  0  0  0  0  0  0
    1.7391   -1.6889   -1.2481 H   0  0  0  0  0  0  0  0  0  0  0  0
    4.3657   -1.2072   -0.9019 H   0  0  0  0  0  0  0  0  0  0  0  0
    5.0260    3.1883    1.9196 H   0  0  0  0  0  0  0  0  0  0  0  0
    5.6875    1.1430    0.6287 H   0  0  0  0  0  0  0  0  0  0  0  0
  1  2  1  0
  1 24  1  0
  1 25  1  0
  1 26  1  0
  2  3  2  0
  2  7  1  0
  3  4  1  0
  3 27  1  0
  4  5  2  0
  4 11  1  0
  5  6  1  0
  5 28  1  0
  6  7  1  0
  6 10  2  0
  7  8  2  0
  8  9  1  0
  9 10  1  0
  9 29  1  0
 10 30  1  0
 11 12  1  0
 11 15  1  0
 12 13  2  0
 12 31  1  0
 13 14  1  0
 13 32  1  0
 14 15  2  0
 14 19  1  0
 15 16  1  0
 16 17  2  0
 17 18  1  0
 17 20  1  0
 18 19  2  0
 18 33  1  0
 19 34  1  0
 20 21  1  0
 20 22  1  0
 20 23  1  0
M  END
>  <group_name>  (1) 
JNS

>  <molecule_index>  (1) 
01861

>  <conformer_index>  (1) 
01

>  <method>  (1) 
b3lyp-d3bj

>  <basis>  (1) 
dzvp

>  <program>  (1) 
psi4

>  <initial_energy>  (1) 
-712269.170330093 kilocalorie / mole

>  <final_energy>  (1) 
-712273.7677493298 kilocalorie / mole

$$$$
