JNS-01380-00
     RDKit          3D

 34 37  0  0  0  0  0  0  0  0999 V2000
   -0.5563    1.3725   -0.4657 C   0  0  0  0  0  0  0  0  0  0  0  0
    0.0440    0.0588   -0.3919 O   0  0  0  0  0  0  0  0  0  0  0  0
    1.3547    0.0466   -0.1611 C   0  0  0  0  0  0  0  0  0  0  0  0
    2.1240    1.0928    0.0369 N   0  0  0  0  0  0  0  0  0  0  0  0
    3.3928    0.5567    0.2157 C   0  0  0  0  0  0  0  0  0  0  0  0
    3.3493   -0.8616    0.1164 C   0  0  0  0  0  0  0  0  0  0  0  0
    4.3646   -1.6943    0.2331 N   0  0  0  0  0  0  0  0  0  0  0  0
    5.5465   -1.0980    0.4723 C   0  0  0  0  0  0  0  0  0  0  0  0
    5.7288    0.2850    0.5942 C   0  0  0  0  0  0  0  0  0  0  0  0
    4.6284    1.1460    0.4649 C   0  0  0  0  0  0  0  0  0  0  0  0
    6.7091   -2.0583    0.6041 C   0  0  0  0  0  0  0  0  0  0  0  0
    6.8700   -2.8082   -0.5132 F   0  0  0  0  0  0  0  0  0  0  0  0
    7.8795   -1.4045    0.8177 F   0  0  0  0  0  0  0  0  0  0  0  0
    6.5388   -2.9180    1.6360 F   0  0  0  0  0  0  0  0  0  0  0  0
    2.0072   -1.1788   -0.1267 N   0  0  0  0  0  0  0  0  0  0  0  0
    1.4524   -2.4790   -0.3192 C   0  0  0  0  0  0  0  0  0  0  0  0
    0.2522   -2.8198    0.3115 C   0  0  0  0  0  0  0  0  0  0  0  0
   -0.2534   -4.0987    0.0928 C   0  0  0  0  0  0  0  0  0  0  0  0
    0.4221   -5.0442   -0.7181 C   0  0  0  0  0  0  0  0  0  0  0  0
   -0.2050   -6.2835   -0.8302 N   0  0  0  0  0  0  0  0  0  0  0  0
   -1.2983   -6.2883   -0.1426 C   0  0  0  0  0  0  0  0  0  0  0  0
   -2.1372   -7.3339   -0.0381 O   0  0  0  0  0  0  0  0  0  0  0  0
   -1.7318   -4.8147    0.7309 S   0  0  0  0  0  0  0  0  0  0  0  0
    1.6305   -4.6822   -1.3252 C   0  0  0  0  0  0  0  0  0  0  0  0
    2.1382   -3.4012   -1.1295 C   0  0  0  0  0  0  0  0  0  0  0  0
   -0.4235    1.9007    0.4808 H   0  0  0  0  0  0  0  0  0  0  0  0
   -0.0991    1.9489   -1.2727 H   0  0  0  0  0  0  0  0  0  0  0  0
   -1.6112    1.1902   -0.6669 H   0  0  0  0  0  0  0  0  0  0  0  0
    6.7189    0.6817    0.7857 H   0  0  0  0  0  0  0  0  0  0  0  0
    4.7354    2.2229    0.5543 H   0  0  0  0  0  0  0  0  0  0  0  0
   -0.2617   -2.1036    0.9423 H   0  0  0  0  0  0  0  0  0  0  0  0
   -1.7491   -8.0553   -0.5685 H   0  0  0  0  0  0  0  0  0  0  0  0
    2.1571   -5.4025   -1.9434 H   0  0  0  0  0  0  0  0  0  0  0  0
    3.0768   -3.1123   -1.5872 H   0  0  0  0  0  0  0  0  0  0  0  0
  1  2  1  0
  1 26  1  0
  1 27  1  0
  1 28  1  0
  2  3  1  0
  3  4  2  0
  3 15  1  0
  4  5  1  0
  5  6  2  0
  5 10  1  0
  6  7  1  0
  6 15  1  0
  7  8  2  0
  8  9  1  0
  8 11  1  0
  9 10  2  0
  9 29  1  0
 10 30  1  0
 11 12  1  0
 11 13  1  0
 11 14  1  0
 15 16  1  0
 16 17  2  0
 16 25  1  0
 17 18  1  0
 17 31  1  0
 18 19  2  0
 18 23  1  0
 19 20  1  0
 19 24  1  0
 20 21  2  0
 21 22  1  0
 21 23  1  0
 22 32  1  0
 24 25  2  0
 24 33  1  0
 25 34  1  0
M  END
>  <group_name>  (1) 
JNS

>  <molecule_index>  (1) 
01380

>  <conformer_index>  (1) 
00

>  <method>  (1) 
b3lyp-d3bj

>  <basis>  (1) 
dzvp

>  <program>  (1) 
psi4

>  <initial_energy>  (1) 
-1031823.3797103666 kilocalorie / mole

>  <final_energy>  (1) 
-1031898.3277530484 kilocalorie / mole

$$$$
