JNS-01448-00
     RDKit          3D

 43 47  0  0  0  0  0  0  0  0999 V2000
    3.2581    2.2446    1.5184 F   0  0  0  0  0  0  0  0  0  0  0  0
    2.2216    1.8656    2.3153 C   0  0  0  0  0  0  0  0  0  0  0  0
    2.1715    2.7142    3.3470 F   0  0  0  0  0  0  0  0  0  0  0  0
    2.5176    0.6339    2.7910 F   0  0  0  0  0  0  0  0  0  0  0  0
    0.9165    1.8598    1.5537 C   0  0  0  0  0  0  0  0  0  0  0  0
   -0.0191    2.7617    1.7428 N   0  0  0  0  0  0  0  0  0  0  0  0
   -1.0343    2.3963    0.8758 C   0  0  0  0  0  0  0  0  0  0  0  0
   -0.6648    1.2304    0.1556 C   0  0  0  0  0  0  0  0  0  0  0  0
   -1.3905    0.5931   -0.7513 N   0  0  0  0  0  0  0  0  0  0  0  0
   -2.5864    1.1479   -0.9778 C   0  0  0  0  0  0  0  0  0  0  0  0
   -3.0760    2.3028   -0.3372 C   0  0  0  0  0  0  0  0  0  0  0  0
   -2.2892    2.9523    0.6162 C   0  0  0  0  0  0  0  0  0  0  0  0
   -3.4218    0.4228   -2.0179 C   0  0  0  0  0  0  0  0  0  0  0  0
   -2.8194    0.4247   -3.2283 F   0  0  0  0  0  0  0  0  0  0  0  0
   -3.6325   -0.8677   -1.6743 F   0  0  0  0  0  0  0  0  0  0  0  0
   -4.6386    1.0022   -2.1733 F   0  0  0  0  0  0  0  0  0  0  0  0
    0.6083    0.8974    0.6053 N   0  0  0  0  0  0  0  0  0  0  0  0
    1.3930   -0.2114    0.1413 C   0  0  0  0  0  0  0  0  0  0  0  0
    0.9338   -1.4991    0.3668 C   0  0  0  0  0  0  0  0  0  0  0  0
    1.7183   -2.5575   -0.1216 C   0  0  0  0  0  0  0  0  0  0  0  0
    2.9278   -2.2834   -0.8139 C   0  0  0  0  0  0  0  0  0  0  0  0
    3.4640   -3.5069   -1.1140 N   0  0  0  0  0  0  0  0  0  0  0  0
    2.6992   -4.5392   -0.6600 N   0  0  0  0  0  0  0  0  0  0  0  0
    1.6487   -3.9875   -0.0734 C   0  0  0  0  0  0  0  0  0  0  0  0
    3.3892   -0.9706   -1.0597 C   0  0  0  0  0  0  0  0  0  0  0  0
    2.5853    0.0536   -0.5682 C   0  0  0  0  0  0  0  0  0  0  0  0
    4.6506   -0.6973   -1.7849 C   0  0  0  0  0  0  0  0  0  0  0  0
    5.5476    0.2755   -1.3109 C   0  0  0  0  0  0  0  0  0  0  0  0
    6.7361    0.5401   -1.9945 C   0  0  0  0  0  0  0  0  0  0  0  0
    7.0504   -0.1645   -3.1616 C   0  0  0  0  0  0  0  0  0  0  0  0
    6.1632   -1.1324   -3.6439 C   0  0  0  0  0  0  0  0  0  0  0  0
    4.9734   -1.3972   -2.9616 C   0  0  0  0  0  0  0  0  0  0  0  0
   -4.0615    2.6762   -0.5884 H   0  0  0  0  0  0  0  0  0  0  0  0
   -2.6334    3.8433    1.1326 H   0  0  0  0  0  0  0  0  0  0  0  0
    0.0054   -1.6722    0.9013 H   0  0  0  0  0  0  0  0  0  0  0  0
    4.3562   -3.7062   -1.5453 H   0  0  0  0  0  0  0  0  0  0  0  0
    0.8832   -4.6157    0.3646 H   0  0  0  0  0  0  0  0  0  0  0  0
    2.8657    1.0850   -0.7533 H   0  0  0  0  0  0  0  0  0  0  0  0
    5.3200    0.8090   -0.3919 H   0  0  0  0  0  0  0  0  0  0  0  0
    7.4217    1.2909   -1.6106 H   0  0  0  0  0  0  0  0  0  0  0  0
    7.9767    0.0406   -3.6916 H   0  0  0  0  0  0  0  0  0  0  0  0
    6.3912   -1.6731   -4.5588 H   0  0  0  0  0  0  0  0  0  0  0  0
    4.2691   -2.1173   -3.3706 H   0  0  0  0  0  0  0  0  0  0  0  0
  1  2  1  0
  2  3  1  0
  2  4  1  0
  2  5  1  0
  5  6  2  0
  5 17  1  0
  6  7  1  0
  7  8  2  0
  7 12  1  0
  8  9  1  0
  8 17  1  0
  9 10  2  0
 10 11  1  0
 10 13  1  0
 11 12  2  0
 11 33  1  0
 12 34  1  0
 13 14  1  0
 13 15  1  0
 13 16  1  0
 17 18  1  0
 18 19  2  0
 18 26  1  0
 19 20  1  0
 19 35  1  0
 20 21  2  0
 20 24  1  0
 21 22  1  0
 21 25  1  0
 22 23  1  0
 22 36  1  0
 23 24  2  0
 24 37  1  0
 25 26  2  0
 25 27  1  0
 26 38  1  0
 27 28  2  0
 27 32  1  0
 28 29  1  0
 28 39  1  0
 29 30  2  0
 29 40  1  0
 30 31  1  0
 30 41  1  0
 31 32  2  0
 31 42  1  0
 32 43  1  0
M  END
>  <group_name>  (1) 
JNS

>  <molecule_index>  (1) 
01448

>  <conformer_index>  (1) 
00

>  <method>  (1) 
b3lyp-d3bj

>  <basis>  (1) 
dzvp

>  <program>  (1) 
psi4

>  <initial_energy>  (1) 
-1054180.675743488 kilocalorie / mole

>  <final_energy>  (1) 
-1054230.911277723 kilocalorie / mole

$$$$
