JNS-00129-06
     RDKit          3D

 31 33  0  0  0  0  0  0  0  0999 V2000
    0.8386   -1.2956   -0.6017 N   0  0  0  0  0  0  0  0  0  0  0  0
   -0.3260   -0.5587   -0.4204 C   0  0  0  0  0  0  0  0  0  0  0  0
   -0.2920    0.7930    0.0404 C   0  0  0  0  0  0  0  0  0  0  0  0
    0.9261    1.4496    0.2780 N   0  0  0  0  0  0  0  0  0  0  0  0
    1.9220    1.6313   -0.7205 C   0  0  0  0  0  0  0  0  0  0  0  0
    1.6912    1.3761   -2.0697 C   0  0  0  0  0  0  0  0  0  0  0  0
    2.7552    1.5495   -2.9801 C   0  0  0  0  0  0  0  0  0  0  0  0
    4.0157    2.0075   -2.5206 C   0  0  0  0  0  0  0  0  0  0  0  0
    4.8126    2.0861   -3.6348 N   0  0  0  0  0  0  0  0  0  0  0  0
    4.1585    1.7163   -4.7686 N   0  0  0  0  0  0  0  0  0  0  0  0
    2.9278    1.3936   -4.3927 C   0  0  0  0  0  0  0  0  0  0  0  0
    4.2491    2.2874   -1.1622 C   0  0  0  0  0  0  0  0  0  0  0  0
    3.2017    2.0788   -0.2809 C   0  0  0  0  0  0  0  0  0  0  0  0
   -1.3920    1.4639    0.3662 N   0  0  0  0  0  0  0  0  0  0  0  0
   -2.5854    0.8692    0.2454 C   0  0  0  0  0  0  0  0  0  0  0  0
   -2.7430   -0.4230   -0.2424 C   0  0  0  0  0  0  0  0  0  0  0  0
   -1.5898   -1.1363   -0.5806 C   0  0  0  0  0  0  0  0  0  0  0  0
   -3.7645    1.7130    0.6691 C   0  0  0  0  0  0  0  0  0  0  0  0
   -4.9374    1.0443    0.5142 F   0  0  0  0  0  0  0  0  0  0  0  0
   -3.8605    2.8548   -0.0547 F   0  0  0  0  0  0  0  0  0  0  0  0
   -3.6849    2.0796    1.9714 F   0  0  0  0  0  0  0  0  0  0  0  0
    0.7289   -2.1382   -1.1535 H   0  0  0  0  0  0  0  0  0  0  0  0
    1.6672   -0.7732   -0.8610 H   0  0  0  0  0  0  0  0  0  0  0  0
    0.7704    2.2775    0.8464 H   0  0  0  0  0  0  0  0  0  0  0  0
    0.7067    1.0755   -2.4154 H   0  0  0  0  0  0  0  0  0  0  0  0
    5.7785    2.3748   -3.7006 H   0  0  0  0  0  0  0  0  0  0  0  0
    2.2090    1.0676   -5.1343 H   0  0  0  0  0  0  0  0  0  0  0  0
    5.2139    2.6374   -0.8057 H   0  0  0  0  0  0  0  0  0  0  0  0
    3.3481    2.2495    0.7823 H   0  0  0  0  0  0  0  0  0  0  0  0
   -3.7262   -0.8665   -0.3480 H   0  0  0  0  0  0  0  0  0  0  0  0
   -1.6666   -2.1619   -0.9350 H   0  0  0  0  0  0  0  0  0  0  0  0
  1  2  1  0
  1 22  1  0
  1 23  1  0
  2  3  2  0
  2 17  1  0
  3  4  1  0
  3 14  1  0
  4  5  1  0
  4 24  1  0
  5  6  2  0
  5 13  1  0
  6  7  1  0
  6 25  1  0
  7  8  2  0
  7 11  1  0
  8  9  1  0
  8 12  1  0
  9 10  1  0
  9 26  1  0
 10 11  2  0
 11 27  1  0
 12 13  2  0
 12 28  1  0
 13 29  1  0
 14 15  2  0
 15 16  1  0
 15 18  1  0
 16 17  2  0
 16 30  1  0
 17 31  1  0
 18 19  1  0
 18 20  1  0
 18 21  1  0
M  END
>  <group_name>  (1) 
JNS

>  <molecule_index>  (1) 
00129

>  <conformer_index>  (1) 
06

>  <method>  (1) 
b3lyp-d3bj

>  <basis>  (1) 
dzvp

>  <program>  (1) 
psi4

>  <initial_energy>  (1) 
-674395.8371075917 kilocalorie / mole

>  <final_energy>  (1) 
-674510.4317046509 kilocalorie / mole

$$$$
