JNS-01384-00
     RDKit          3D

 36 39  0  0  0  0  0  0  0  0999 V2000
   -0.5596    1.5948    0.3087 C   0  0  0  0  0  0  0  0  0  0  0  0
   -0.0213    0.1904    0.5991 C   0  0  0  0  0  0  0  0  0  0  0  0
    1.4439    0.0607    0.3119 C   0  0  0  0  0  0  0  0  0  0  0  0
    2.1492    0.9031   -0.4174 N   0  0  0  0  0  0  0  0  0  0  0  0
    3.4469    0.4189   -0.3960 C   0  0  0  0  0  0  0  0  0  0  0  0
    3.5137   -0.7645    0.3867 C   0  0  0  0  0  0  0  0  0  0  0  0
    4.5882   -1.4931    0.6392 N   0  0  0  0  0  0  0  0  0  0  0  0
    5.7112   -1.0269    0.0716 C   0  0  0  0  0  0  0  0  0  0  0  0
    5.7865    0.1254   -0.7275 C   0  0  0  0  0  0  0  0  0  0  0  0
    4.6303    0.8758   -0.9748 C   0  0  0  0  0  0  0  0  0  0  0  0
    6.9446   -1.8567    0.3644 C   0  0  0  0  0  0  0  0  0  0  0  0
    7.1980   -1.9256    1.6935 F   0  0  0  0  0  0  0  0  0  0  0  0
    6.8136   -3.1279   -0.0815 F   0  0  0  0  0  0  0  0  0  0  0  0
    8.0516   -1.3380   -0.2261 F   0  0  0  0  0  0  0  0  0  0  0  0
    2.2127   -0.9849    0.8282 N   0  0  0  0  0  0  0  0  0  0  0  0
    1.7888   -2.0595    1.6650 C   0  0  0  0  0  0  0  0  0  0  0  0
    0.8098   -2.9492    1.1965 C   0  0  0  0  0  0  0  0  0  0  0  0
    0.4568   -3.9562    2.0752 C   0  0  0  0  0  0  0  0  0  0  0  0
    1.0272   -4.1351    3.3465 C   0  0  0  0  0  0  0  0  0  0  0  0
    0.4421   -5.2609    3.9482 N   0  0  0  0  0  0  0  0  0  0  0  0
   -0.3989   -5.6749    3.0532 C   0  0  0  0  0  0  0  0  0  0  0  0
   -1.2205   -6.7205    3.1115 O   0  0  0  0  0  0  0  0  0  0  0  0
   -0.4761   -4.9688    1.8899 O   0  0  0  0  0  0  0  0  0  0  0  0
    2.0152   -3.2524    3.7866 C   0  0  0  0  0  0  0  0  0  0  0  0
    2.3821   -2.2105    2.9309 C   0  0  0  0  0  0  0  0  0  0  0  0
   -0.4005    1.8661   -0.7371 H   0  0  0  0  0  0  0  0  0  0  0  0
   -0.0535    2.3430    0.9247 H   0  0  0  0  0  0  0  0  0  0  0  0
   -1.6316    1.6339    0.5236 H   0  0  0  0  0  0  0  0  0  0  0  0
   -0.2001   -0.0881    1.6439 H   0  0  0  0  0  0  0  0  0  0  0  0
   -0.5692   -0.5473   -0.0009 H   0  0  0  0  0  0  0  0  0  0  0  0
    6.7399    0.4265   -1.1453 H   0  0  0  0  0  0  0  0  0  0  0  0
    4.6534    1.7727   -1.5867 H   0  0  0  0  0  0  0  0  0  0  0  0
    0.3781   -2.8575    0.2061 H   0  0  0  0  0  0  0  0  0  0  0  0
   -1.0718   -7.1474    3.9744 H   0  0  0  0  0  0  0  0  0  0  0  0
    2.4812   -3.3721    4.7594 H   0  0  0  0  0  0  0  0  0  0  0  0
    3.1493   -1.5054    3.2320 H   0  0  0  0  0  0  0  0  0  0  0  0
  1  2  1  0
  1 26  1  0
  1 27  1  0
  1 28  1  0
  2  3  1  0
  2 29  1  0
  2 30  1  0
  3  4  2  0
  3 15  1  0
  4  5  1  0
  5  6  2  0
  5 10  1  0
  6  7  1  0
  6 15  1  0
  7  8  2  0
  8  9  1  0
  8 11  1  0
  9 10  2  0
  9 31  1  0
 10 32  1  0
 11 12  1  0
 11 13  1  0
 11 14  1  0
 15 16  1  0
 16 17  2  0
 16 25  1  0
 17 18  1  0
 17 33  1  0
 18 19  2  0
 18 23  1  0
 19 20  1  0
 19 24  1  0
 20 21  2  0
 21 22  1  0
 21 23  1  0
 22 34  1  0
 24 25  2  0
 24 35  1  0
 25 36  1  0
M  END
>  <group_name>  (1) 
JNS

>  <molecule_index>  (1) 
01384

>  <conformer_index>  (1) 
00

>  <method>  (1) 
b3lyp-d3bj

>  <basis>  (1) 
dzvp

>  <program>  (1) 
psi4

>  <initial_energy>  (1) 
-806655.877390759 kilocalorie / mole

>  <final_energy>  (1) 
-806720.2451384048 kilocalorie / mole

$$$$
