JNS-01845-03
     RDKit          3D

 36 39  0  0  0  0  0  0  0  0999 V2000
    0.0635   -0.3637   -0.7716 C   0  0  0  0  0  0  0  0  0  0  0  0
    1.5422   -0.2647   -0.5803 C   0  0  0  0  0  0  0  0  0  0  0  0
    2.3797    0.7977   -0.8419 C   0  0  0  0  0  0  0  0  0  0  0  0
    3.7026    0.4182   -0.4386 C   0  0  0  0  0  0  0  0  0  0  0  0
    3.6094   -0.9120    0.0741 C   0  0  0  0  0  0  0  0  0  0  0  0
    4.6012   -1.6421    0.5622 N   0  0  0  0  0  0  0  0  0  0  0  0
    5.7984   -1.0425    0.5587 C   0  0  0  0  0  0  0  0  0  0  0  0
    6.0367    0.2578    0.0837 C   0  0  0  0  0  0  0  0  0  0  0  0
    4.9727    1.0063   -0.4259 C   0  0  0  0  0  0  0  0  0  0  0  0
    6.9201   -1.8862    1.1273 C   0  0  0  0  0  0  0  0  0  0  0  0
    6.6879   -2.2273    2.4182 F   0  0  0  0  0  0  0  0  0  0  0  0
    7.0849   -3.0394    0.4373 F   0  0  0  0  0  0  0  0  0  0  0  0
    8.1084   -1.2293    1.0967 F   0  0  0  0  0  0  0  0  0  0  0  0
    2.2838   -1.3158   -0.0271 N   0  0  0  0  0  0  0  0  0  0  0  0
    1.7904   -2.5929    0.3646 C   0  0  0  0  0  0  0  0  0  0  0  0
    1.1894   -3.4342   -0.5865 C   0  0  0  0  0  0  0  0  0  0  0  0
    0.7169   -4.6744   -0.1818 C   0  0  0  0  0  0  0  0  0  0  0  0
    0.8601   -5.0877    1.1532 C   0  0  0  0  0  0  0  0  0  0  0  0
    0.3279   -6.3680    1.3234 N   0  0  0  0  0  0  0  0  0  0  0  0
   -0.1821   -6.8785    0.1328 C   0  0  0  0  0  0  0  0  0  0  0  0
   -0.6971   -7.9723   -0.0072 O   0  0  0  0  0  0  0  0  0  0  0  0
    0.0393   -5.7922   -0.9360 C   0  0  0  0  0  0  0  0  0  0  0  0
    1.4738   -4.2540    2.0766 C   0  0  0  0  0  0  0  0  0  0  0  0
    1.6095   -4.6742    3.3607 F   0  0  0  0  0  0  0  0  0  0  0  0
    1.9371   -3.0000    1.6959 C   0  0  0  0  0  0  0  0  0  0  0  0
   -0.2045   -1.0461   -1.5849 H   0  0  0  0  0  0  0  0  0  0  0  0
   -0.3389    0.6224   -1.0128 H   0  0  0  0  0  0  0  0  0  0  0  0
   -0.4300   -0.7291    0.1349 H   0  0  0  0  0  0  0  0  0  0  0  0
    2.0668    1.7469   -1.2574 H   0  0  0  0  0  0  0  0  0  0  0  0
    7.0390    0.6683    0.1178 H   0  0  0  0  0  0  0  0  0  0  0  0
    5.1339    2.0143   -0.7985 H   0  0  0  0  0  0  0  0  0  0  0  0
    1.1206   -3.1173   -1.6225 H   0  0  0  0  0  0  0  0  0  0  0  0
    0.3279   -6.8920    2.1900 H   0  0  0  0  0  0  0  0  0  0  0  0
   -0.9265   -5.5083   -1.3653 H   0  0  0  0  0  0  0  0  0  0  0  0
    0.6496   -6.2044   -1.7455 H   0  0  0  0  0  0  0  0  0  0  0  0
    2.4197   -2.3587    2.4247 H   0  0  0  0  0  0  0  0  0  0  0  0
  1  2  1  0
  1 26  1  0
  1 27  1  0
  1 28  1  0
  2  3  2  0
  2 14  1  0
  3  4  1  0
  3 29  1  0
  4  5  2  0
  4  9  1  0
  5  6  1  0
  5 14  1  0
  6  7  2  0
  7  8  1  0
  7 10  1  0
  8  9  2  0
  8 30  1  0
  9 31  1  0
 10 11  1  0
 10 12  1  0
 10 13  1  0
 14 15  1  0
 15 16  2  0
 15 25  1  0
 16 17  1  0
 16 32  1  0
 17 18  2  0
 17 22  1  0
 18 19  1  0
 18 23  1  0
 19 20  1  0
 19 33  1  0
 20 21  2  0
 20 22  1  0
 22 34  1  0
 22 35  1  0
 23 24  1  0
 23 25  2  0
 25 36  1  0
M  END
>  <group_name>  (1) 
JNS

>  <molecule_index>  (1) 
01845

>  <conformer_index>  (1) 
03

>  <method>  (1) 
b3lyp-d3bj

>  <basis>  (1) 
dzvp

>  <program>  (1) 
psi4

>  <initial_energy>  (1) 
-811692.7265636689 kilocalorie / mole

>  <final_energy>  (1) 
-811733.9826765314 kilocalorie / mole

$$$$
