JNS-01589-05
     RDKit          3D

 43 47  0  0  0  0  0  0  0  0999 V2000
   -2.6649    2.7227   -0.0598 C   0  0  0  0  0  0  0  0  0  0  0  0
   -2.0077    1.3712    0.0011 C   0  0  0  0  0  0  0  0  0  0  0  0
   -2.7967    0.1899    0.1404 C   0  0  0  0  0  0  0  0  0  0  0  0
   -4.1432    0.1103    0.2271 N   0  0  0  0  0  0  0  0  0  0  0  0
   -4.3713   -1.2135    0.3661 N   0  0  0  0  0  0  0  0  0  0  0  0
   -3.2605   -1.9922    0.3753 C   0  0  0  0  0  0  0  0  0  0  0  0
   -2.1837   -1.1077    0.2251 C   0  0  0  0  0  0  0  0  0  0  0  0
   -0.7753   -1.2464    0.1611 C   0  0  0  0  0  0  0  0  0  0  0  0
   -0.0137   -0.0996    0.0009 C   0  0  0  0  0  0  0  0  0  0  0  0
   -0.6443    1.1946   -0.0623 C   0  0  0  0  0  0  0  0  0  0  0  0
    1.4490   -0.1424   -0.0573 C   0  0  0  0  0  0  0  0  0  0  0  0
    2.3943    0.7304    0.5347 C   0  0  0  0  0  0  0  0  0  0  0  0
    2.2124    1.8490    1.2699 N   0  0  0  0  0  0  0  0  0  0  0  0
    3.3191    2.4371    1.6866 C   0  0  0  0  0  0  0  0  0  0  0  0
    4.6434    1.9768    1.4239 C   0  0  0  0  0  0  0  0  0  0  0  0
    4.8364    0.8328    0.6743 C   0  0  0  0  0  0  0  0  0  0  0  0
    3.6753    0.1781    0.2040 C   0  0  0  0  0  0  0  0  0  0  0  0
    3.5496   -0.9325   -0.5474 N   0  0  0  0  0  0  0  0  0  0  0  0
    2.2066   -1.0839   -0.6947 N   0  0  0  0  0  0  0  0  0  0  0  0
    1.7213   -2.2021   -1.4990 C   0  0  0  0  0  0  0  0  0  0  0  0
    1.8644   -3.5911   -0.8021 C   0  0  0  0  0  0  0  0  0  0  0  0
    3.0512   -3.9299   -1.7492 C   0  0  0  0  0  0  0  0  0  0  0  0
    2.7046   -2.6787   -2.6036 C   0  0  0  0  0  0  0  0  0  0  0  0
    3.0929    3.7011    2.4963 C   0  0  0  0  0  0  0  0  0  0  0  0
    2.3557    3.4663    3.6055 F   0  0  0  0  0  0  0  0  0  0  0  0
    4.2656    4.2527    2.9064 F   0  0  0  0  0  0  0  0  0  0  0  0
    2.4413    4.6470    1.7776 F   0  0  0  0  0  0  0  0  0  0  0  0
   -1.9218    3.5184   -0.1530 H   0  0  0  0  0  0  0  0  0  0  0  0
   -3.3545    2.7827   -0.9089 H   0  0  0  0  0  0  0  0  0  0  0  0
   -3.2593    2.9035    0.8422 H   0  0  0  0  0  0  0  0  0  0  0  0
   -5.3299   -1.5273    0.4541 H   0  0  0  0  0  0  0  0  0  0  0  0
   -3.3143   -3.0668    0.4828 H   0  0  0  0  0  0  0  0  0  0  0  0
   -0.3110   -2.2203    0.2767 H   0  0  0  0  0  0  0  0  0  0  0  0
   -0.0018    2.0642   -0.1528 H   0  0  0  0  0  0  0  0  0  0  0  0
    5.4873    2.5329    1.8154 H   0  0  0  0  0  0  0  0  0  0  0  0
    5.8299    0.4537    0.4527 H   0  0  0  0  0  0  0  0  0  0  0  0
    0.7199   -1.9372   -1.8349 H   0  0  0  0  0  0  0  0  0  0  0  0
    0.9821   -4.2171   -0.9654 H   0  0  0  0  0  0  0  0  0  0  0  0
    2.0842   -3.5531    0.2678 H   0  0  0  0  0  0  0  0  0  0  0  0
    3.0042   -4.8966   -2.2568 H   0  0  0  0  0  0  0  0  0  0  0  0
    4.0177   -3.8304   -1.2516 H   0  0  0  0  0  0  0  0  0  0  0  0
    3.5249   -1.9972   -2.8272 H   0  0  0  0  0  0  0  0  0  0  0  0
    2.1647   -2.9191   -3.5236 H   0  0  0  0  0  0  0  0  0  0  0  0
  1  2  1  0
  1 28  1  0
  1 29  1  0
  1 30  1  0
  2  3  1  0
  2 10  2  0
  3  4  2  0
  3  7  1  0
  4  5  1  0
  5  6  1  0
  5 31  1  0
  6  7  2  0
  6 32  1  0
  7  8  1  0
  8  9  2  0
  8 33  1  0
  9 10  1  0
  9 11  1  0
 10 34  1  0
 11 12  2  0
 11 19  1  0
 12 13  1  0
 12 17  1  0
 13 14  2  0
 14 15  1  0
 14 24  1  0
 15 16  2  0
 15 35  1  0
 16 17  1  0
 16 36  1  0
 17 18  2  0
 18 19  1  0
 19 20  1  0
 20 21  1  0
 20 23  1  0
 20 37  1  0
 21 22  1  0
 21 38  1  0
 21 39  1  0
 22 23  1  0
 22 40  1  0
 22 41  1  0
 23 42  1  0
 23 43  1  0
 24 25  1  0
 24 26  1  0
 24 27  1  0
M  END
>  <group_name>  (1) 
JNS

>  <molecule_index>  (1) 
01589

>  <conformer_index>  (1) 
05

>  <method>  (1) 
b3lyp-d3bj

>  <basis>  (1) 
dzvp

>  <program>  (1) 
psi4

>  <initial_energy>  (1) 
-820239.6618124933 kilocalorie / mole

>  <final_energy>  (1) 
-820251.0415213371 kilocalorie / mole

$$$$
