JNS-01861-04
     RDKit          3D

 34 37  0  0  0  0  0  0  0  0999 V2000
   -2.7030   -2.6655    0.2767 C   0  0  0  0  0  0  0  0  0  0  0  0
   -2.0178   -1.3344    0.1305 C   0  0  0  0  0  0  0  0  0  0  0  0
   -0.6484   -1.1924    0.0825 C   0  0  0  0  0  0  0  0  0  0  0  0
   -0.0064    0.0838   -0.0541 C   0  0  0  0  0  0  0  0  0  0  0  0
   -0.7270    1.2562   -0.1184 C   0  0  0  0  0  0  0  0  0  0  0  0
   -2.1392    1.1490   -0.0501 C   0  0  0  0  0  0  0  0  0  0  0  0
   -2.7810   -0.1319    0.0591 C   0  0  0  0  0  0  0  0  0  0  0  0
   -4.1278   -0.0142    0.0992 N   0  0  0  0  0  0  0  0  0  0  0  0
   -4.3265    1.3179    0.0158 N   0  0  0  0  0  0  0  0  0  0  0  0
   -3.1974    2.0661   -0.0743 C   0  0  0  0  0  0  0  0  0  0  0  0
    1.4179    0.1040   -0.1126 N   0  0  0  0  0  0  0  0  0  0  0  0
    2.2066   -0.8442   -0.7564 C   0  0  0  0  0  0  0  0  0  0  0  0
    3.5415   -0.5588   -0.6004 C   0  0  0  0  0  0  0  0  0  0  0  0
    3.6161    0.6398    0.1837 C   0  0  0  0  0  0  0  0  0  0  0  0
    2.2700    1.0336    0.4710 C   0  0  0  0  0  0  0  0  0  0  0  0
    1.9027    2.0976    1.1746 N   0  0  0  0  0  0  0  0  0  0  0  0
    2.9065    2.8463    1.6417 C   0  0  0  0  0  0  0  0  0  0  0  0
    4.2702    2.5769    1.4345 C   0  0  0  0  0  0  0  0  0  0  0  0
    4.6359    1.4526    0.6925 C   0  0  0  0  0  0  0  0  0  0  0  0
    2.4608    4.0559    2.4369 C   0  0  0  0  0  0  0  0  0  0  0  0
    1.6632    4.8728    1.7050 F   0  0  0  0  0  0  0  0  0  0  0  0
    3.5162    4.8009    2.8553 F   0  0  0  0  0  0  0  0  0  0  0  0
    1.7594    3.7055    3.5406 F   0  0  0  0  0  0  0  0  0  0  0  0
   -3.3263   -2.6834    1.1771 H   0  0  0  0  0  0  0  0  0  0  0  0
   -1.9779   -3.4814    0.3369 H   0  0  0  0  0  0  0  0  0  0  0  0
   -3.3707   -2.8526   -0.5713 H   0  0  0  0  0  0  0  0  0  0  0  0
   -0.0233   -2.0760    0.1780 H   0  0  0  0  0  0  0  0  0  0  0  0
   -0.2302    2.2148   -0.2006 H   0  0  0  0  0  0  0  0  0  0  0  0
   -5.2787    1.6618    0.0294 H   0  0  0  0  0  0  0  0  0  0  0  0
   -3.2258    3.1448   -0.1416 H   0  0  0  0  0  0  0  0  0  0  0  0
    1.7364   -1.6461   -1.3083 H   0  0  0  0  0  0  0  0  0  0  0  0
    4.3624   -1.1296   -1.0135 H   0  0  0  0  0  0  0  0  0  0  0  0
    5.0206    3.2410    1.8469 H   0  0  0  0  0  0  0  0  0  0  0  0
    5.6831    1.2210    0.5173 H   0  0  0  0  0  0  0  0  0  0  0  0
  1  2  1  0
  1 24  1  0
  1 25  1  0
  1 26  1  0
  2  3  2  0
  2  7  1  0
  3  4  1  0
  3 27  1  0
  4  5  2  0
  4 11  1  0
  5  6  1  0
  5 28  1  0
  6  7  1  0
  6 10  2  0
  7  8  2  0
  8  9  1  0
  9 10  1  0
  9 29  1  0
 10 30  1  0
 11 12  1  0
 11 15  1  0
 12 13  2  0
 12 31  1  0
 13 14  1  0
 13 32  1  0
 14 15  2  0
 14 19  1  0
 15 16  1  0
 16 17  2  0
 17 18  1  0
 17 20  1  0
 18 19  2  0
 18 33  1  0
 19 34  1  0
 20 21  1  0
 20 22  1  0
 20 23  1  0
M  END
>  <group_name>  (1) 
JNS

>  <molecule_index>  (1) 
01861

>  <conformer_index>  (1) 
04

>  <method>  (1) 
b3lyp-d3bj

>  <basis>  (1) 
dzvp

>  <program>  (1) 
psi4

>  <initial_energy>  (1) 
-712230.812715574 kilocalorie / mole

>  <final_energy>  (1) 
-712273.7678067782 kilocalorie / mole

$$$$
