JNS-01658-05
     RDKit          3D

 38 41  0  0  0  0  0  0  0  0999 V2000
   -0.2197   -2.5733    0.6575 C   0  0  0  0  0  0  0  0  0  0  0  0
   -0.7898   -1.2140    0.4248 C   0  0  0  0  0  0  0  0  0  0  0  0
   -2.0803   -0.9395    0.3947 N   0  0  0  0  0  0  0  0  0  0  0  0
   -2.1622    0.4174    0.1281 C   0  0  0  0  0  0  0  0  0  0  0  0
   -0.8594    0.9679   -0.0096 C   0  0  0  0  0  0  0  0  0  0  0  0
   -0.5505    2.2261   -0.2776 N   0  0  0  0  0  0  0  0  0  0  0  0
   -1.6138    3.0318   -0.4210 C   0  0  0  0  0  0  0  0  0  0  0  0
   -2.9521    2.6213   -0.3070 C   0  0  0  0  0  0  0  0  0  0  0  0
   -3.2459    1.2816   -0.0256 C   0  0  0  0  0  0  0  0  0  0  0  0
   -1.2629    4.4719   -0.7334 C   0  0  0  0  0  0  0  0  0  0  0  0
   -0.5002    5.0275    0.2368 F   0  0  0  0  0  0  0  0  0  0  0  0
   -0.5684    4.5779   -1.8927 F   0  0  0  0  0  0  0  0  0  0  0  0
   -2.3720    5.2439   -0.8619 F   0  0  0  0  0  0  0  0  0  0  0  0
    0.0119   -0.0973    0.1931 N   0  0  0  0  0  0  0  0  0  0  0  0
    1.4371   -0.0329    0.1468 C   0  0  0  0  0  0  0  0  0  0  0  0
    2.1894   -0.3985    1.2731 C   0  0  0  0  0  0  0  0  0  0  0  0
    3.5717   -0.3213    1.1934 C   0  0  0  0  0  0  0  0  0  0  0  0
    4.1814    0.1374    0.0134 C   0  0  0  0  0  0  0  0  0  0  0  0
    5.5742    0.1389    0.1857 N   0  0  0  0  0  0  0  0  0  0  0  0
    5.9529   -0.2963    1.4507 C   0  0  0  0  0  0  0  0  0  0  0  0
    7.0979   -0.3857    1.8573 O   0  0  0  0  0  0  0  0  0  0  0  0
    4.6521   -0.6294    2.2000 C   0  0  0  0  0  0  0  0  0  0  0  0
    3.4542    0.5271   -1.1144 C   0  0  0  0  0  0  0  0  0  0  0  0
    4.1419    1.0345   -2.3571 C   0  0  0  0  0  0  0  0  0  0  0  0
    2.0597    0.4230   -1.0196 C   0  0  0  0  0  0  0  0  0  0  0  0
    0.1755   -2.6737    1.6737 H   0  0  0  0  0  0  0  0  0  0  0  0
    0.5993   -2.7831   -0.0364 H   0  0  0  0  0  0  0  0  0  0  0  0
   -1.0137   -3.3090    0.5234 H   0  0  0  0  0  0  0  0  0  0  0  0
   -3.7477    3.3449   -0.4398 H   0  0  0  0  0  0  0  0  0  0  0  0
   -4.2693    0.9303    0.0673 H   0  0  0  0  0  0  0  0  0  0  0  0
    1.6921   -0.7160    2.1849 H   0  0  0  0  0  0  0  0  0  0  0  0
    6.2548    0.4363   -0.5020 H   0  0  0  0  0  0  0  0  0  0  0  0
    4.6756   -1.6776    2.5142 H   0  0  0  0  0  0  0  0  0  0  0  0
    4.5930   -0.0181    3.1061 H   0  0  0  0  0  0  0  0  0  0  0  0
    4.7273    1.9377   -2.1466 H   0  0  0  0  0  0  0  0  0  0  0  0
    3.4164    1.2869   -3.1336 H   0  0  0  0  0  0  0  0  0  0  0  0
    4.8271    0.2850   -2.7715 H   0  0  0  0  0  0  0  0  0  0  0  0
    1.4420    0.7165   -1.8628 H   0  0  0  0  0  0  0  0  0  0  0  0
  1  2  1  0
  1 26  1  0
  1 27  1  0
  1 28  1  0
  2  3  2  0
  2 14  1  0
  3  4  1  0
  4  5  2  0
  4  9  1  0
  5  6  1  0
  5 14  1  0
  6  7  2  0
  7  8  1  0
  7 10  1  0
  8  9  2  0
  8 29  1  0
  9 30  1  0
 10 11  1  0
 10 12  1  0
 10 13  1  0
 14 15  1  0
 15 16  2  0
 15 25  1  0
 16 17  1  0
 16 31  1  0
 17 18  2  0
 17 22  1  0
 18 19  1  0
 18 23  1  0
 19 20  1  0
 19 32  1  0
 20 21  2  0
 20 22  1  0
 22 33  1  0
 22 34  1  0
 23 24  1  0
 23 25  2  0
 24 35  1  0
 24 36  1  0
 24 37  1  0
 25 38  1  0
M  END
>  <group_name>  (1) 
JNS

>  <molecule_index>  (1) 
01658

>  <conformer_index>  (1) 
05

>  <method>  (1) 
b3lyp-d3bj

>  <basis>  (1) 
dzvp

>  <program>  (1) 
psi4

>  <initial_energy>  (1) 
-784157.2628199765 kilocalorie / mole

>  <final_energy>  (1) 
-784200.7456200931 kilocalorie / mole

$$$$
