JNS-01795-08
     RDKit          3D

 43 46  0  0  0  0  0  0  0  0999 V2000
   -0.7235    0.2926   -1.4168 C   0  0  0  0  0  0  0  0  0  0  0  0
   -0.0918    0.3779   -0.0077 C   0  0  0  0  0  0  0  0  0  0  0  0
   -0.7708   -0.6446    0.9313 C   0  0  0  0  0  0  0  0  0  0  0  0
   -0.3258    1.7943    0.5523 C   0  0  0  0  0  0  0  0  0  0  0  0
    1.4052    0.1340   -0.0841 C   0  0  0  0  0  0  0  0  0  0  0  0
    2.2989    1.0631    0.2106 N   0  0  0  0  0  0  0  0  0  0  0  0
    3.5375    0.4796    0.0236 C   0  0  0  0  0  0  0  0  0  0  0  0
    3.3770   -0.8638   -0.4028 C   0  0  0  0  0  0  0  0  0  0  0  0
    4.3371   -1.7333   -0.6751 N   0  0  0  0  0  0  0  0  0  0  0  0
    5.5765   -1.2444   -0.5187 C   0  0  0  0  0  0  0  0  0  0  0  0
    5.8778    0.0644   -0.1057 C   0  0  0  0  0  0  0  0  0  0  0  0
    4.8382    0.9590    0.1759 C   0  0  0  0  0  0  0  0  0  0  0  0
    6.6786   -2.2389   -0.8195 C   0  0  0  0  0  0  0  0  0  0  0  0
    6.6313   -3.3080    0.0121 F   0  0  0  0  0  0  0  0  0  0  0  0
    6.5986   -2.7166   -2.0835 F   0  0  0  0  0  0  0  0  0  0  0  0
    7.9108   -1.6834   -0.6807 F   0  0  0  0  0  0  0  0  0  0  0  0
    2.0044   -1.0712   -0.4709 N   0  0  0  0  0  0  0  0  0  0  0  0
    1.4297   -2.3254   -0.8670 C   0  0  0  0  0  0  0  0  0  0  0  0
    1.1262   -2.5467   -2.2037 C   0  0  0  0  0  0  0  0  0  0  0  0
    0.5988   -3.7946   -2.5773 C   0  0  0  0  0  0  0  0  0  0  0  0
    0.4142   -4.7928   -1.5757 C   0  0  0  0  0  0  0  0  0  0  0  0
   -0.1050   -5.9084   -2.2041 N   0  0  0  0  0  0  0  0  0  0  0  0
   -0.2458   -5.6484   -3.5594 C   0  0  0  0  0  0  0  0  0  0  0  0
    0.1715   -4.3661   -3.8262 C   0  0  0  0  0  0  0  0  0  0  0  0
    0.7479   -4.5753   -0.2327 C   0  0  0  0  0  0  0  0  0  0  0  0
    1.2620   -3.3305    0.1096 C   0  0  0  0  0  0  0  0  0  0  0  0
   -0.6782   -0.7179   -1.8264 H   0  0  0  0  0  0  0  0  0  0  0  0
   -0.2227    0.9749   -2.1115 H   0  0  0  0  0  0  0  0  0  0  0  0
   -1.7777    0.5837   -1.3581 H   0  0  0  0  0  0  0  0  0  0  0  0
   -0.3039   -0.6374    1.9218 H   0  0  0  0  0  0  0  0  0  0  0  0
   -0.7292   -1.6612    0.5370 H   0  0  0  0  0  0  0  0  0  0  0  0
   -1.8251   -0.3749    1.0538 H   0  0  0  0  0  0  0  0  0  0  0  0
   -1.4033    1.9802    0.6110 H   0  0  0  0  0  0  0  0  0  0  0  0
    0.1030    1.9032    1.5516 H   0  0  0  0  0  0  0  0  0  0  0  0
    0.1277    2.5559   -0.0857 H   0  0  0  0  0  0  0  0  0  0  0  0
    6.9125    0.3710   -0.0080 H   0  0  0  0  0  0  0  0  0  0  0  0
    5.0345    1.9775    0.4981 H   0  0  0  0  0  0  0  0  0  0  0  0
    1.3037   -1.7660   -2.9375 H   0  0  0  0  0  0  0  0  0  0  0  0
   -0.3190   -6.7868   -1.7542 H   0  0  0  0  0  0  0  0  0  0  0  0
   -0.6349   -6.4061   -4.2266 H   0  0  0  0  0  0  0  0  0  0  0  0
    0.1761   -3.8906   -4.7979 H   0  0  0  0  0  0  0  0  0  0  0  0
    0.6200   -5.3489    0.5198 H   0  0  0  0  0  0  0  0  0  0  0  0
    1.5436   -3.1161    1.1358 H   0  0  0  0  0  0  0  0  0  0  0  0
  1  2  1  0
  1 27  1  0
  1 28  1  0
  1 29  1  0
  2  3  1  0
  2  4  1  0
  2  5  1  0
  3 30  1  0
  3 31  1  0
  3 32  1  0
  4 33  1  0
  4 34  1  0
  4 35  1  0
  5  6  2  0
  5 17  1  0
  6  7  1  0
  7  8  2  0
  7 12  1  0
  8  9  1  0
  8 17  1  0
  9 10  2  0
 10 11  1  0
 10 13  1  0
 11 12  2  0
 11 36  1  0
 12 37  1  0
 13 14  1  0
 13 15  1  0
 13 16  1  0
 17 18  1  0
 18 19  2  0
 18 26  1  0
 19 20  1  0
 19 38  1  0
 20 21  2  0
 20 24  1  0
 21 22  1  0
 21 25  1  0
 22 23  1  0
 22 39  1  0
 23 24  2  0
 23 40  1  0
 24 41  1  0
 25 26  2  0
 25 42  1  0
 26 43  1  0
M  END
>  <group_name>  (1) 
JNS

>  <molecule_index>  (1) 
01795

>  <conformer_index>  (1) 
08

>  <method>  (1) 
b3lyp-d3bj

>  <basis>  (1) 
dzvp

>  <program>  (1) 
psi4

>  <initial_energy>  (1) 
-786261.7733543342 kilocalorie / mole

>  <final_energy>  (1) 
-786318.4608549933 kilocalorie / mole

$$$$
