JNS-01082-06
     RDKit          3D

 43 46  0  0  0  0  0  0  0  0999 V2000
   -2.4110    2.8466    0.1479 C   0  0  0  0  0  0  0  0  0  0  0  0
   -0.9213    3.1980    0.2392 C   0  0  2  0  0  0  0  0  0  0  0  0
   -0.4513    4.1155   -0.9136 C   0  0  0  0  0  0  0  0  0  0  0  0
   -0.2609    3.2764   -2.1338 C   0  0  0  0  0  0  0  0  0  0  0  0
   -0.1350    1.9107   -2.1253 C   0  0  0  0  0  0  0  0  0  0  0  0
   -0.1518    1.0797   -0.8823 C   0  0  0  0  0  0  0  0  0  0  0  0
   -0.0822    1.9791    0.2794 N   0  0  0  0  0  0  0  0  0  0  0  0
    0.6008    1.6990    1.4248 C   0  0  0  0  0  0  0  0  0  0  0  0
    0.5205    2.3666    2.4574 O   0  0  0  0  0  0  0  0  0  0  0  0
    1.5183    0.4968    1.4324 C   0  0  0  0  0  0  0  0  0  0  0  0
    2.6824    0.4357    0.6720 C   0  0  0  0  0  0  0  0  0  0  0  0
    2.9554    1.4244   -0.2032 F   0  0  0  0  0  0  0  0  0  0  0  0
    3.5623   -0.6419    0.8049 C   0  0  0  0  0  0  0  0  0  0  0  0
    3.3306   -1.6459    1.6485 N   0  0  0  0  0  0  0  0  0  0  0  0
    2.2187   -1.5998    2.3929 C   0  0  0  0  0  0  0  0  0  0  0  0
    1.2977   -0.5531    2.3285 C   0  0  0  0  0  0  0  0  0  0  0  0
    4.8338   -0.6952   -0.0317 C   0  0  0  0  0  0  0  0  0  0  0  0
    4.5394   -0.6940   -1.3561 F   0  0  0  0  0  0  0  0  0  0  0  0
    5.5608   -1.7895    0.2265 F   0  0  0  0  0  0  0  0  0  0  0  0
    5.6144    0.3886    0.2056 F   0  0  0  0  0  0  0  0  0  0  0  0
   -0.0183    1.4515   -3.4092 N   0  0  0  0  0  0  0  0  0  0  0  0
   -0.0627    2.4606   -4.2282 N   0  0  0  0  0  0  0  0  0  0  0  0
   -0.2142    3.5977   -3.4661 N   0  0  0  0  0  0  0  0  0  0  0  0
   -0.2552    4.8769   -4.0701 C   0  0  0  0  0  0  0  0  0  0  0  0
    0.0348    5.9048   -3.2723 N   0  0  0  0  0  0  0  0  0  0  0  0
    0.0022    7.1190   -3.8331 C   0  0  0  0  0  0  0  0  0  0  0  0
   -0.3001    7.2984   -5.1849 C   0  0  0  0  0  0  0  0  0  0  0  0
   -0.3377    8.5049   -5.8213 O   0  0  0  0  0  0  0  0  0  0  0  0
   -0.5905    6.1384   -5.9198 C   0  0  0  0  0  0  0  0  0  0  0  0
   -0.5791    4.9293   -5.3634 N   0  0  0  0  0  0  0  0  0  0  0  0
   -2.6919    2.1671    0.9579 H   0  0  0  0  0  0  0  0  0  0  0  0
   -2.6687    2.3778   -0.8067 H   0  0  0  0  0  0  0  0  0  0  0  0
   -3.0117    3.7562    0.2454 H   0  0  0  0  0  0  0  0  0  0  0  0
   -0.7392    3.7049    1.1857 H   0  0  0  0  0  0  0  0  0  0  0  0
   -1.1846    4.9084   -1.0814 H   0  0  0  0  0  0  0  0  0  0  0  0
    0.4886    4.6085   -0.6465 H   0  0  0  0  0  0  0  0  0  0  0  0
    0.6895    0.3890   -0.8789 H   0  0  0  0  0  0  0  0  0  0  0  0
   -1.0654    0.4714   -0.8342 H   0  0  0  0  0  0  0  0  0  0  0  0
    2.0634   -2.4330    3.0741 H   0  0  0  0  0  0  0  0  0  0  0  0
    0.4235   -0.5408    2.9723 H   0  0  0  0  0  0  0  0  0  0  0  0
    0.2323    7.9658   -3.1846 H   0  0  0  0  0  0  0  0  0  0  0  0
   -0.1105    9.2157   -5.1995 H   0  0  0  0  0  0  0  0  0  0  0  0
   -0.8451    6.2079   -6.9759 H   0  0  0  0  0  0  0  0  0  0  0  0
  1  2  1  0
  1 31  1  0
  1 32  1  0
  1 33  1  0
  2  3  1  0
  2  7  1  0
  2 34  1  1
  3  4  1  0
  3 35  1  0
  3 36  1  0
  4  5  2  0
  4 23  1  0
  5  6  1  0
  5 21  1  0
  6  7  1  0
  6 37  1  0
  6 38  1  0
  7  8  1  0
  8  9  2  0
  8 10  1  0
 10 11  2  0
 10 16  1  0
 11 12  1  0
 11 13  1  0
 13 14  2  0
 13 17  1  0
 14 15  1  0
 15 16  2  0
 15 39  1  0
 16 40  1  0
 17 18  1  0
 17 19  1  0
 17 20  1  0
 21 22  2  0
 22 23  1  0
 23 24  1  0
 24 25  2  0
 24 30  1  0
 25 26  1  0
 26 27  2  0
 26 41  1  0
 27 28  1  0
 27 29  1  0
 28 42  1  0
 29 30  2  0
 29 43  1  0
M  END
>  <group_name>  (1) 
JNS

>  <molecule_index>  (1) 
01082

>  <conformer_index>  (1) 
06

>  <method>  (1) 
b3lyp-d3bj

>  <basis>  (1) 
dzvp

>  <program>  (1) 
psi4

>  <initial_energy>  (1) 
-997057.2098320251 kilocalorie / mole

>  <final_energy>  (1) 
-997106.9119005806 kilocalorie / mole

$$$$
