JNS-00617-02
     RDKit          3D

 44 48  0  0  0  0  0  0  0  0999 V2000
   -1.9844   -4.0835   -2.4853 F   0  0  0  0  0  0  0  0  0  0  0  0
   -1.3301   -4.1026   -1.2885 C   0  0  0  0  0  0  0  0  0  0  0  0
   -1.8133   -5.1827   -0.6112 F   0  0  0  0  0  0  0  0  0  0  0  0
   -0.0340   -4.3266   -1.5387 F   0  0  0  0  0  0  0  0  0  0  0  0
   -1.5822   -2.8220   -0.5153 C   0  0  0  0  0  0  0  0  0  0  0  0
   -0.5322   -2.0852   -0.2174 N   0  0  0  0  0  0  0  0  0  0  0  0
   -0.8071   -0.9453    0.4618 C   0  0  0  0  0  0  0  0  0  0  0  0
    0.0595    0.0621    0.9397 C   0  0  0  0  0  0  0  0  0  0  0  0
   -0.7627    0.9662    1.5457 N   0  0  0  0  0  0  0  0  0  0  0  0
   -0.4194    2.3061    2.0317 C   0  0  0  0  0  0  0  0  0  0  0  0
    0.0211    3.2314    0.8985 C   0  0  0  0  0  0  0  0  0  0  0  0
   -1.1045    3.5390   -0.1320 C   0  0  0  0  0  0  0  0  0  0  0  0
   -1.3586    4.8969    0.5840 C   0  0  0  0  0  0  0  0  0  0  0  0
   -0.0014    4.7294    1.3266 C   0  0  0  0  0  0  0  0  0  0  0  0
   -2.0861    0.6457    1.5111 N   0  0  0  0  0  0  0  0  0  0  0  0
   -2.1213   -0.5302    0.8558 C   0  0  0  0  0  0  0  0  0  0  0  0
   -3.2222   -1.3558    0.5221 C   0  0  0  0  0  0  0  0  0  0  0  0
   -2.9364   -2.5103   -0.1735 C   0  0  0  0  0  0  0  0  0  0  0  0
    1.5190    0.1678    0.8249 C   0  0  0  0  0  0  0  0  0  0  0  0
    2.3171    0.5036    1.9434 C   0  0  0  0  0  0  0  0  0  0  0  0
    3.7070    0.5995    1.8539 C   0  0  0  0  0  0  0  0  0  0  0  0
    4.2789    0.3407    0.6104 C   0  0  0  0  0  0  0  0  0  0  0  0
    5.5968    0.3366    0.1522 N   0  0  0  0  0  0  0  0  0  0  0  0
    5.5377   -0.0162   -1.1746 C   0  0  0  0  0  0  0  0  0  0  0  0
    6.6848   -0.1020   -1.8708 O   0  0  0  0  0  0  0  0  0  0  0  0
    4.3325   -0.2347   -1.6286 N   0  0  0  0  0  0  0  0  0  0  0  0
    3.5029   -0.0205   -0.5225 C   0  0  0  0  0  0  0  0  0  0  0  0
    2.1156   -0.1132   -0.4158 C   0  0  0  0  0  0  0  0  0  0  0  0
   -1.3279    2.6742    2.5109 H   0  0  0  0  0  0  0  0  0  0  0  0
    0.3620    2.2354    2.7907 H   0  0  0  0  0  0  0  0  0  0  0  0
    0.9637    2.8712    0.4795 H   0  0  0  0  0  0  0  0  0  0  0  0
   -0.7031    3.6687   -1.1409 H   0  0  0  0  0  0  0  0  0  0  0  0
   -1.9359    2.8303   -0.1721 H   0  0  0  0  0  0  0  0  0  0  0  0
   -2.2149    4.8552    1.2633 H   0  0  0  0  0  0  0  0  0  0  0  0
   -1.4663    5.7799   -0.0514 H   0  0  0  0  0  0  0  0  0  0  0  0
    0.0123    4.9362    2.4023 H   0  0  0  0  0  0  0  0  0  0  0  0
    0.8057    5.2978    0.8562 H   0  0  0  0  0  0  0  0  0  0  0  0
   -4.2374   -1.0872    0.7996 H   0  0  0  0  0  0  0  0  0  0  0  0
   -3.7266   -3.1934   -0.4686 H   0  0  0  0  0  0  0  0  0  0  0  0
    1.8448    0.6540    2.9087 H   0  0  0  0  0  0  0  0  0  0  0  0
    4.3052    0.8489    2.7259 H   0  0  0  0  0  0  0  0  0  0  0  0
    6.4418    0.5244    0.6746 H   0  0  0  0  0  0  0  0  0  0  0  0
    6.4387   -0.3728   -2.7737 H   0  0  0  0  0  0  0  0  0  0  0  0
    1.5123   -0.3975   -1.2710 H   0  0  0  0  0  0  0  0  0  0  0  0
  1  2  1  0
  2  3  1  0
  2  4  1  0
  2  5  1  0
  5  6  2  0
  5 18  1  0
  6  7  1  0
  7  8  2  0
  7 16  1  0
  8  9  1  0
  8 19  1  0
  9 10  1  0
  9 15  1  0
 10 11  1  0
 10 29  1  0
 10 30  1  0
 11 12  1  0
 11 14  1  0
 11 31  1  0
 12 13  1  0
 12 32  1  0
 12 33  1  0
 13 14  1  0
 13 34  1  0
 13 35  1  0
 14 36  1  0
 14 37  1  0
 15 16  2  0
 16 17  1  0
 17 18  2  0
 17 38  1  0
 18 39  1  0
 19 20  2  0
 19 28  1  0
 20 21  1  0
 20 40  1  0
 21 22  2  0
 21 41  1  0
 22 23  1  0
 22 27  1  0
 23 24  1  0
 23 42  1  0
 24 25  1  0
 24 26  2  0
 25 43  1  0
 26 27  1  0
 27 28  2  0
 28 44  1  0
M  END
>  <group_name>  (1) 
JNS

>  <molecule_index>  (1) 
00617

>  <conformer_index>  (1) 
02

>  <method>  (1) 
b3lyp-d3bj

>  <basis>  (1) 
dzvp

>  <program>  (1) 
psi4

>  <initial_energy>  (1) 
-867412.1520879983 kilocalorie / mole

>  <final_energy>  (1) 
-867482.894932706 kilocalorie / mole

$$$$
