JNS-00690-02
     RDKit          3D

 38 42  0  0  0  0  0  0  0  0999 V2000
   -0.5827    1.3368   -0.1025 O   0  0  0  0  0  0  0  0  0  0  0  0
   -0.0624    0.0175   -0.1151 C   0  0  0  0  0  0  0  0  0  0  0  0
   -0.7638   -1.0162   -0.9587 C   0  0  0  0  0  0  0  0  0  0  0  0
   -0.9225   -1.0158    0.5520 C   0  0  0  0  0  0  0  0  0  0  0  0
    1.4194   -0.0375    0.0036 C   0  0  0  0  0  0  0  0  0  0  0  0
    2.2338   -0.0686   -1.0362 N   0  0  0  0  0  0  0  0  0  0  0  0
    3.5098   -0.0738   -0.5023 C   0  0  0  0  0  0  0  0  0  0  0  0
    3.4442   -0.0470    0.9171 C   0  0  0  0  0  0  0  0  0  0  0  0
    4.4694   -0.0514    1.7565 N   0  0  0  0  0  0  0  0  0  0  0  0
    5.6683   -0.0814    1.1597 C   0  0  0  0  0  0  0  0  0  0  0  0
    5.8745   -0.1063   -0.2308 C   0  0  0  0  0  0  0  0  0  0  0  0
    4.7737   -0.1029   -1.0932 C   0  0  0  0  0  0  0  0  0  0  0  0
    6.8401   -0.0863    2.1214 C   0  0  0  0  0  0  0  0  0  0  0  0
    6.7857   -1.1400    2.9706 F   0  0  0  0  0  0  0  0  0  0  0  0
    8.0270   -0.1612    1.4669 F   0  0  0  0  0  0  0  0  0  0  0  0
    6.8723    1.0343    2.8790 F   0  0  0  0  0  0  0  0  0  0  0  0
    2.0890   -0.0180    1.2267 N   0  0  0  0  0  0  0  0  0  0  0  0
    1.5276    0.0154    2.5415 C   0  0  0  0  0  0  0  0  0  0  0  0
    0.5360    0.9357    2.8490 C   0  0  0  0  0  0  0  0  0  0  0  0
   -0.0090    0.9033    4.1452 C   0  0  0  0  0  0  0  0  0  0  0  0
    0.4758   -0.0322    5.0968 C   0  0  0  0  0  0  0  0  0  0  0  0
   -0.2419    0.1987    6.2403 N   0  0  0  0  0  0  0  0  0  0  0  0
   -1.1459    1.2091    6.0950 N   0  0  0  0  0  0  0  0  0  0  0  0
   -1.0177    1.6381    4.8486 C   0  0  0  0  0  0  0  0  0  0  0  0
    1.4931   -0.9508    4.7847 C   0  0  0  0  0  0  0  0  0  0  0  0
    2.0057   -0.9177    3.4980 C   0  0  0  0  0  0  0  0  0  0  0  0
   -0.3061    1.7595   -0.9333 H   0  0  0  0  0  0  0  0  0  0  0  0
   -0.1576   -1.7884   -1.4207 H   0  0  0  0  0  0  0  0  0  0  0  0
   -1.6036   -0.6633   -1.5489 H   0  0  0  0  0  0  0  0  0  0  0  0
   -1.8581   -0.6534    0.9650 H   0  0  0  0  0  0  0  0  0  0  0  0
   -0.4319   -1.7930    1.1291 H   0  0  0  0  0  0  0  0  0  0  0  0
    6.8845   -0.1301   -0.6225 H   0  0  0  0  0  0  0  0  0  0  0  0
    4.8945   -0.1229   -2.1723 H   0  0  0  0  0  0  0  0  0  0  0  0
    0.1856    1.6419    2.1039 H   0  0  0  0  0  0  0  0  0  0  0  0
   -0.1693   -0.2656    7.1346 H   0  0  0  0  0  0  0  0  0  0  0  0
   -1.6404    2.4489    4.4916 H   0  0  0  0  0  0  0  0  0  0  0  0
    1.8690   -1.6625    5.5140 H   0  0  0  0  0  0  0  0  0  0  0  0
    2.7953   -1.6037    3.2132 H   0  0  0  0  0  0  0  0  0  0  0  0
  1  2  1  0
  1 27  1  0
  2  3  1  0
  2  4  1  0
  2  5  1  0
  3  4  1  0
  3 28  1  0
  3 29  1  0
  4 30  1  0
  4 31  1  0
  5  6  2  0
  5 17  1  0
  6  7  1  0
  7  8  2  0
  7 12  1  0
  8  9  1  0
  8 17  1  0
  9 10  2  0
 10 11  1  0
 10 13  1  0
 11 12  2  0
 11 32  1  0
 12 33  1  0
 13 14  1  0
 13 15  1  0
 13 16  1  0
 17 18  1  0
 18 19  2  0
 18 26  1  0
 19 20  1  0
 19 34  1  0
 20 21  2  0
 20 24  1  0
 21 22  1  0
 21 25  1  0
 22 23  1  0
 22 35  1  0
 23 24  2  0
 24 36  1  0
 25 26  2  0
 25 37  1  0
 26 38  1  0
M  END
>  <group_name>  (1) 
JNS

>  <molecule_index>  (1) 
00690

>  <conformer_index>  (1) 
02

>  <method>  (1) 
b3lyp-d3bj

>  <basis>  (1) 
dzvp

>  <program>  (1) 
psi4

>  <initial_energy>  (1) 
-818067.2993004328 kilocalorie / mole

>  <final_energy>  (1) 
-818126.0417185272 kilocalorie / mole

$$$$
