JNS-02239-07
     RDKit          3D

 53 57  0  0  0  0  0  0  0  0999 V2000
   -3.8980   -0.4062    0.4614 C   0  0  0  0  0  0  0  0  0  0  0  0
   -2.5994    0.1955    0.2106 N   0  0  0  0  0  0  0  0  0  0  0  0
   -1.3773   -0.3211    0.4612 C   0  0  0  0  0  0  0  0  0  0  0  0
   -0.4346    0.6365    0.0761 C   0  0  0  0  0  0  0  0  0  0  0  0
   -1.2338    1.7139   -0.4099 C   0  0  0  0  0  0  0  0  0  0  0  0
   -2.5358    1.4413   -0.3281 N   0  0  0  0  0  0  0  0  0  0  0  0
    1.0124    0.4266    0.1632 C   0  0  0  0  0  0  0  0  0  0  0  0
    1.9801    1.4424   -0.0032 C   0  0  0  0  0  0  0  0  0  0  0  0
    1.6422    2.9029   -0.2186 C   0  0  0  0  0  0  0  0  0  0  0  0
    2.8671    3.7911    0.0266 C   0  0  1  0  0  0  0  0  0  0  0  0
    3.2528    3.8745    1.5295 C   0  0  0  0  0  0  0  0  0  0  0  0
    4.7604    3.6866    1.7319 C   0  0  0  0  0  0  0  0  0  0  0  0
    5.2106    2.3151    1.2049 C   0  0  0  0  0  0  0  0  0  0  0  0
    4.4822    1.9834   -0.1304 C   0  0  2  0  0  0  0  0  0  0  0  0
    3.9871    3.2183   -0.7376 N   0  0  0  0  0  0  0  0  0  0  0  0
    4.2014    3.6293   -2.0138 C   0  0  0  0  0  0  0  0  0  0  0  0
    3.5361    4.5047   -2.5730 O   0  0  0  0  0  0  0  0  0  0  0  0
    5.3240    2.9735   -2.7847 C   0  0  0  0  0  0  0  0  0  0  0  0
    5.0648    2.4276   -4.0458 C   0  0  0  0  0  0  0  0  0  0  0  0
    6.1148    1.8823   -4.7852 C   0  0  0  0  0  0  0  0  0  0  0  0
    7.3832    1.8661   -4.3559 N   0  0  0  0  0  0  0  0  0  0  0  0
    7.6477    2.4033   -3.1668 C   0  0  0  0  0  0  0  0  0  0  0  0
    6.6504    2.9636   -2.3637 C   0  0  0  0  0  0  0  0  0  0  0  0
    6.9796    3.5007   -1.1701 F   0  0  0  0  0  0  0  0  0  0  0  0
    9.0917    2.3854   -2.6850 C   0  0  0  0  0  0  0  0  0  0  0  0
    9.5485    3.6437   -2.4675 F   0  0  0  0  0  0  0  0  0  0  0  0
    9.9103    1.7972   -3.5656 F   0  0  0  0  0  0  0  0  0  0  0  0
    9.1975    1.7146   -1.5079 F   0  0  0  0  0  0  0  0  0  0  0  0
    3.3164    1.0229    0.0700 C   0  0  0  0  0  0  0  0  0  0  0  0
    3.6770   -0.2404    0.3251 N   0  0  0  0  0  0  0  0  0  0  0  0
    2.6849   -1.1250    0.5141 C   0  0  0  0  0  0  0  0  0  0  0  0
    3.0831   -2.5369    0.8533 C   0  0  0  0  0  0  0  0  0  0  0  0
    1.3817   -0.8474    0.4307 N   0  0  0  0  0  0  0  0  0  0  0  0
   -3.7518   -1.4232    0.8284 H   0  0  0  0  0  0  0  0  0  0  0  0
   -4.4756   -0.4315   -0.4653 H   0  0  0  0  0  0  0  0  0  0  0  0
   -4.4429    0.1770    1.2082 H   0  0  0  0  0  0  0  0  0  0  0  0
   -1.2301   -1.3058    0.8800 H   0  0  0  0  0  0  0  0  0  0  0  0
   -0.9315    2.6585   -0.8375 H   0  0  0  0  0  0  0  0  0  0  0  0
    0.8356    3.2054    0.4576 H   0  0  0  0  0  0  0  0  0  0  0  0
    1.2861    3.0671   -1.2421 H   0  0  0  0  0  0  0  0  0  0  0  0
    2.6860    4.7855   -0.3794 H   0  0  0  0  0  0  0  0  0  0  0  0
    2.9249    4.8391    1.9278 H   0  0  0  0  0  0  0  0  0  0  0  0
    2.7156    3.1029    2.0932 H   0  0  0  0  0  0  0  0  0  0  0  0
    5.2983    4.4785    1.2000 H   0  0  0  0  0  0  0  0  0  0  0  0
    5.0167    3.7833    2.7917 H   0  0  0  0  0  0  0  0  0  0  0  0
    4.9887    1.5253    1.9277 H   0  0  0  0  0  0  0  0  0  0  0  0
    6.2906    2.3103    1.0423 H   0  0  0  0  0  0  0  0  0  0  0  0
    5.1696    1.4828   -0.8103 H   0  0  0  0  0  0  0  0  0  0  0  0
    4.0528    2.4418   -4.4383 H   0  0  0  0  0  0  0  0  0  0  0  0
    5.9344    1.4428   -5.7632 H   0  0  0  0  0  0  0  0  0  0  0  0
    3.4122   -2.5891    1.8976 H   0  0  0  0  0  0  0  0  0  0  0  0
    3.9248   -2.8545    0.2327 H   0  0  0  0  0  0  0  0  0  0  0  0
    2.2401   -3.2162    0.7194 H   0  0  0  0  0  0  0  0  0  0  0  0
  1  2  1  0
  1 34  1  0
  1 35  1  0
  1 36  1  0
  2  3  1  0
  2  6  1  0
  3  4  2  0
  3 37  1  0
  4  5  1  0
  4  7  1  0
  5  6  2  0
  5 38  1  0
  7  8  1  0
  7 33  2  0
  8  9  1  0
  8 29  2  0
  9 10  1  0
  9 39  1  0
  9 40  1  0
 10 11  1  0
 10 15  1  0
 10 41  1  6
 11 12  1  0
 11 42  1  0
 11 43  1  0
 12 13  1  0
 12 44  1  0
 12 45  1  0
 13 14  1  0
 13 46  1  0
 13 47  1  0
 14 15  1  0
 14 29  1  0
 14 48  1  6
 15 16  1  0
 16 17  2  0
 16 18  1  0
 18 19  2  0
 18 23  1  0
 19 20  1  0
 19 49  1  0
 20 21  2  0
 20 50  1  0
 21 22  1  0
 22 23  2  0
 22 25  1  0
 23 24  1  0
 25 26  1  0
 25 27  1  0
 25 28  1  0
 29 30  1  0
 30 31  2  0
 31 32  1  0
 31 33  1  0
 32 51  1  0
 32 52  1  0
 32 53  1  0
M  END
>  <group_name>  (1) 
JNS

>  <molecule_index>  (1) 
02239

>  <conformer_index>  (1) 
07

>  <method>  (1) 
b3lyp-d3bj

>  <basis>  (1) 
dzvp

>  <program>  (1) 
psi4

>  <initial_energy>  (1) 
-1037752.2879058584 kilocalorie / mole

>  <final_energy>  (1) 
-1037799.2302026869 kilocalorie / mole

$$$$
