JNS-02536-01
     RDKit          3D

 44 47  0  0  0  0  0  0  0  0999 V2000
   -6.5104   -4.3965   -0.4005 C   0  0  0  0  0  0  0  0  0  0  0  0
   -5.3173   -3.4843   -0.2385 C   0  0  0  0  0  0  0  0  0  0  0  0
   -4.8405   -3.1304    1.0310 C   0  0  0  0  0  0  0  0  0  0  0  0
   -3.7225   -2.3052    1.1775 C   0  0  0  0  0  0  0  0  0  0  0  0
   -3.0703   -1.8143    0.0461 C   0  0  0  0  0  0  0  0  0  0  0  0
   -3.5229   -2.1666   -1.2293 C   0  0  0  0  0  0  0  0  0  0  0  0
   -4.6372   -2.9925   -1.3649 C   0  0  0  0  0  0  0  0  0  0  0  0
   -1.9526   -0.9337    0.1882 N   0  0  0  0  0  0  0  0  0  0  0  0
   -0.6593   -1.3454    0.0971 C   0  0  0  0  0  0  0  0  0  0  0  0
   -0.0947   -2.8879   -0.0993 S   0  0  0  0  0  0  0  0  0  0  0  0
    0.1339   -0.1809    0.1975 N   0  0  0  0  0  0  0  0  0  0  0  0
   -0.6462    0.9736    0.3456 C   0  0  0  0  0  0  0  0  0  0  0  0
   -0.2399    2.1051    0.5050 O   0  0  0  0  0  0  0  0  0  0  0  0
   -2.0895    0.5189    0.3036 C   0  0  0  0  0  0  0  0  0  0  0  0
   -3.0325    1.0582    1.4230 C   0  0  0  0  0  0  0  0  0  0  0  0
   -4.0965    1.4074    0.3489 C   0  0  0  0  0  0  0  0  0  0  0  0
   -3.0118    1.2234   -0.7451 C   0  0  0  0  0  0  0  0  0  0  0  0
    1.5449   -0.1510    0.0574 C   0  0  0  0  0  0  0  0  0  0  0  0
    2.0087    0.6061   -0.9346 N   0  0  0  0  0  0  0  0  0  0  0  0
    3.3214    0.6948   -1.1031 C   0  0  0  0  0  0  0  0  0  0  0  0
    4.2467    0.0088   -0.2915 C   0  0  0  0  0  0  0  0  0  0  0  0
    3.7380   -0.7933    0.7437 C   0  0  0  0  0  0  0  0  0  0  0  0
    2.3636   -0.8739    0.9287 C   0  0  0  0  0  0  0  0  0  0  0  0
    5.6665    0.0988   -0.4783 C   0  0  0  0  0  0  0  0  0  0  0  0
    6.8244    0.1436   -0.5920 N   0  0  0  0  0  0  0  0  0  0  0  0
    3.7977    1.5796   -2.2529 C   0  0  0  0  0  0  0  0  0  0  0  0
    2.7794    2.1393   -2.9149 F   0  0  0  0  0  0  0  0  0  0  0  0
    4.5257    0.8565   -3.1388 F   0  0  0  0  0  0  0  0  0  0  0  0
    4.5950    2.5728   -1.7918 F   0  0  0  0  0  0  0  0  0  0  0  0
   -6.1962   -5.3911   -0.7377 H   0  0  0  0  0  0  0  0  0  0  0  0
   -7.0514   -4.5204    0.5413 H   0  0  0  0  0  0  0  0  0  0  0  0
   -7.2108   -4.0064   -1.1459 H   0  0  0  0  0  0  0  0  0  0  0  0
   -5.3426   -3.5086    1.9181 H   0  0  0  0  0  0  0  0  0  0  0  0
   -3.3466   -2.0557    2.1652 H   0  0  0  0  0  0  0  0  0  0  0  0
   -2.9892   -1.8079   -2.1045 H   0  0  0  0  0  0  0  0  0  0  0  0
   -4.9819   -3.2639   -2.3602 H   0  0  0  0  0  0  0  0  0  0  0  0
   -2.5878    1.9437    1.8832 H   0  0  0  0  0  0  0  0  0  0  0  0
   -3.3073    0.3405    2.1978 H   0  0  0  0  0  0  0  0  0  0  0  0
   -4.5556    2.3957    0.4198 H   0  0  0  0  0  0  0  0  0  0  0  0
   -4.8807    0.6496    0.2828 H   0  0  0  0  0  0  0  0  0  0  0  0
   -3.2695    0.6264   -1.6213 H   0  0  0  0  0  0  0  0  0  0  0  0
   -2.5615    2.1666   -1.0626 H   0  0  0  0  0  0  0  0  0  0  0  0
    4.4209   -1.3344    1.3906 H   0  0  0  0  0  0  0  0  0  0  0  0
    1.9305   -1.4775    1.7167 H   0  0  0  0  0  0  0  0  0  0  0  0
  1  2  1  0
  1 30  1  0
  1 31  1  0
  1 32  1  0
  2  3  2  0
  2  7  1  0
  3  4  1  0
  3 33  1  0
  4  5  2  0
  4 34  1  0
  5  6  1  0
  5  8  1  0
  6  7  2  0
  6 35  1  0
  7 36  1  0
  8  9  1  0
  8 14  1  0
  9 10  2  0
  9 11  1  0
 11 12  1  0
 11 18  1  0
 12 13  2  0
 12 14  1  0
 14 15  1  0
 14 17  1  0
 15 16  1  0
 15 37  1  0
 15 38  1  0
 16 17  1  0
 16 39  1  0
 16 40  1  0
 17 41  1  0
 17 42  1  0
 18 19  2  0
 18 23  1  0
 19 20  1  0
 20 21  2  0
 20 26  1  0
 21 22  1  0
 21 24  1  0
 22 23  2  0
 22 43  1  0
 23 44  1  0
 24 25  3  0
 26 27  1  0
 26 28  1  0
 26 29  1  0
M  END
>  <group_name>  (1) 
JNS

>  <molecule_index>  (1) 
02536

>  <conformer_index>  (1) 
01

>  <method>  (1) 
b3lyp-d3bj

>  <basis>  (1) 
dzvp

>  <program>  (1) 
psi4

>  <initial_energy>  (1) 
-1106472.9055332066 kilocalorie / mole

>  <final_energy>  (1) 
-1106513.921886312 kilocalorie / mole

$$$$
