JNS-02157-00
     RDKit          3D

 42 45  0  0  0  0  0  0  0  0999 V2000
   -2.5130    2.4428   -1.1777 C   0  0  0  0  0  0  0  0  0  0  0  0
   -1.9836    1.5756   -0.0315 C   0  0  2  0  0  0  0  0  0  0  0  0
   -2.3493    2.1377    1.3640 C   0  0  0  0  0  0  0  0  0  0  0  0
   -1.4142    3.2610    1.6765 C   0  0  0  0  0  0  0  0  0  0  0  0
   -0.2321    3.4958    1.0214 C   0  0  0  0  0  0  0  0  0  0  0  0
    0.2918    2.6270   -0.0797 C   0  0  0  0  0  0  0  0  0  0  0  0
   -0.5171    1.4016   -0.1234 N   0  0  0  0  0  0  0  0  0  0  0  0
   -0.0064    0.1437    0.0087 C   0  0  0  0  0  0  0  0  0  0  0  0
   -0.6906   -0.8785    0.0493 O   0  0  0  0  0  0  0  0  0  0  0  0
    1.4977   -0.0020    0.0716 C   0  0  0  0  0  0  0  0  0  0  0  0
    2.2000   -0.4159   -1.0616 C   0  0  0  0  0  0  0  0  0  0  0  0
    3.5718   -0.6427   -0.9593 C   0  0  0  0  0  0  0  0  0  0  0  0
    4.2501   -0.4915    0.1828 N   0  0  0  0  0  0  0  0  0  0  0  0
    3.5884   -0.1065    1.2729 C   0  0  0  0  0  0  0  0  0  0  0  0
    2.2077    0.1534    1.2677 C   0  0  0  0  0  0  0  0  0  0  0  0
    1.3532    0.6738    2.6990 Cl  0  0  0  0  0  0  0  0  0  0  0  0
    4.4315    0.0433    2.5393 C   0  0  0  0  0  0  0  0  0  0  0  0
    4.3856    1.3157    3.0065 F   0  0  0  0  0  0  0  0  0  0  0  0
    5.7167   -0.2622    2.3212 F   0  0  0  0  0  0  0  0  0  0  0  0
    3.9793   -0.7678    3.5274 F   0  0  0  0  0  0  0  0  0  0  0  0
    0.3653    4.6162    1.5343 N   0  0  0  0  0  0  0  0  0  0  0  0
   -0.3775    5.1014    2.4820 N   0  0  0  0  0  0  0  0  0  0  0  0
   -1.4845    4.2835    2.5911 N   0  0  0  0  0  0  0  0  0  0  0  0
   -2.4654    4.5269    3.5771 C   0  0  0  0  0  0  0  0  0  0  0  0
   -2.4696    5.7351    4.1426 N   0  0  0  0  0  0  0  0  0  0  0  0
   -3.3886    5.9394    5.0880 C   0  0  0  0  0  0  0  0  0  0  0  0
   -4.2948    4.9392    5.4335 C   0  0  0  0  0  0  0  0  0  0  0  0
   -5.2265    5.1521    6.3839 F   0  0  0  0  0  0  0  0  0  0  0  0
   -4.2212    3.7190    4.7722 C   0  0  0  0  0  0  0  0  0  0  0  0
   -3.2894    3.5067    3.8366 N   0  0  0  0  0  0  0  0  0  0  0  0
   -2.1830    3.4833   -1.1010 H   0  0  0  0  0  0  0  0  0  0  0  0
   -2.1856    2.0436   -2.1421 H   0  0  0  0  0  0  0  0  0  0  0  0
   -3.6071    2.4401   -1.1633 H   0  0  0  0  0  0  0  0  0  0  0  0
   -2.4018    0.5738   -0.1205 H   0  0  0  0  0  0  0  0  0  0  0  0
   -2.2582    1.3525    2.1210 H   0  0  0  0  0  0  0  0  0  0  0  0
   -3.3916    2.4659    1.3770 H   0  0  0  0  0  0  0  0  0  0  0  0
    1.3394    2.3824    0.0908 H   0  0  0  0  0  0  0  0  0  0  0  0
    0.2383    3.1432   -1.0465 H   0  0  0  0  0  0  0  0  0  0  0  0
    1.6798   -0.5655   -2.0031 H   0  0  0  0  0  0  0  0  0  0  0  0
    4.1506   -0.9607   -1.8236 H   0  0  0  0  0  0  0  0  0  0  0  0
   -3.4136    6.9132    5.5736 H   0  0  0  0  0  0  0  0  0  0  0  0
   -4.9102    2.9086    5.0018 H   0  0  0  0  0  0  0  0  0  0  0  0
  1  2  1  0
  1 31  1  0
  1 32  1  0
  1 33  1  0
  2  3  1  0
  2  7  1  0
  2 34  1  6
  3  4  1  0
  3 35  1  0
  3 36  1  0
  4  5  2  0
  4 23  1  0
  5  6  1  0
  5 21  1  0
  6  7  1  0
  6 37  1  0
  6 38  1  0
  7  8  1  0
  8  9  2  0
  8 10  1  0
 10 11  2  0
 10 15  1  0
 11 12  1  0
 11 39  1  0
 12 13  2  0
 12 40  1  0
 13 14  1  0
 14 15  2  0
 14 17  1  0
 15 16  1  0
 17 18  1  0
 17 19  1  0
 17 20  1  0
 21 22  2  0
 22 23  1  0
 23 24  1  0
 24 25  2  0
 24 30  1  0
 25 26  1  0
 26 27  2  0
 26 41  1  0
 27 28  1  0
 27 29  1  0
 29 30  2  0
 29 42  1  0
M  END
>  <group_name>  (1) 
JNS

>  <molecule_index>  (1) 
02157

>  <conformer_index>  (1) 
00

>  <method>  (1) 
b3lyp-d3bj

>  <basis>  (1) 
dzvp

>  <program>  (1) 
psi4

>  <initial_energy>  (1) 
-1238224.0009298946 kilocalorie / mole

>  <final_energy>  (1) 
-1238276.4166739506 kilocalorie / mole

$$$$
