JNS-01548-01
     RDKit          3D

 36 39  0  0  0  0  0  0  0  0999 V2000
   -2.9724   -0.2683    2.3639 C   0  0  0  0  0  0  0  0  0  0  0  0
   -2.1307   -0.1943    1.1171 C   0  0  0  0  0  0  0  0  0  0  0  0
   -0.7493   -0.0113    1.1623 C   0  0  0  0  0  0  0  0  0  0  0  0
    0.0187    0.0455   -0.0112 C   0  0  0  0  0  0  0  0  0  0  0  0
   -0.5530   -0.0868   -1.2747 C   0  0  0  0  0  0  0  0  0  0  0  0
   -1.9359   -0.2523   -1.3249 C   0  0  0  0  0  0  0  0  0  0  0  0
   -2.7277   -0.3097   -0.1533 C   0  0  0  0  0  0  0  0  0  0  0  0
   -4.0916   -0.4901   -0.3726 N   0  0  0  0  0  0  0  0  0  0  0  0
   -4.3301   -0.5669   -1.6406 C   0  0  0  0  0  0  0  0  0  0  0  0
   -5.5461   -0.7408   -2.1850 O   0  0  0  0  0  0  0  0  0  0  0  0
   -2.9606   -0.4337   -2.7454 S   0  0  0  0  0  0  0  0  0  0  0  0
    1.4392    0.2068    0.1082 N   0  0  0  0  0  0  0  0  0  0  0  0
    2.3049   -0.7077    0.6991 C   0  0  0  0  0  0  0  0  0  0  0  0
    3.6006   -0.1402    0.5843 C   0  0  0  0  0  0  0  0  0  0  0  0
    4.6771   -0.8634    1.1029 C   0  0  0  0  0  0  0  0  0  0  0  0
    4.3772   -2.0902    1.6989 C   0  0  0  0  0  0  0  0  0  0  0  0
    3.0417   -2.5338    1.7505 C   0  0  0  0  0  0  0  0  0  0  0  0
    1.9914   -1.8664    1.2597 N   0  0  0  0  0  0  0  0  0  0  0  0
    2.6868   -3.8581    2.4027 C   0  0  0  0  0  0  0  0  0  0  0  0
    3.7877   -4.4896    2.8819 F   0  0  0  0  0  0  0  0  0  0  0  0
    1.8386   -3.6865    3.4426 F   0  0  0  0  0  0  0  0  0  0  0  0
    2.0890   -4.6990    1.5301 F   0  0  0  0  0  0  0  0  0  0  0  0
    3.5277    1.0878   -0.0502 N   0  0  0  0  0  0  0  0  0  0  0  0
    2.2506    1.2518   -0.3063 C   0  0  0  0  0  0  0  0  0  0  0  0
    1.7049    2.4860   -0.9855 C   0  0  0  0  0  0  0  0  0  0  0  0
    2.6344    3.4440   -1.0579 F   0  0  0  0  0  0  0  0  0  0  0  0
    0.6363    2.9790   -0.3172 F   0  0  0  0  0  0  0  0  0  0  0  0
    1.2930    2.2108   -2.2517 F   0  0  0  0  0  0  0  0  0  0  0  0
   -2.3582   -0.1529    3.2600 H   0  0  0  0  0  0  0  0  0  0  0  0
   -3.7406    0.5116    2.3624 H   0  0  0  0  0  0  0  0  0  0  0  0
   -3.4945   -1.2286    2.4217 H   0  0  0  0  0  0  0  0  0  0  0  0
   -0.2481    0.0825    2.1206 H   0  0  0  0  0  0  0  0  0  0  0  0
    0.0599   -0.0620   -2.1688 H   0  0  0  0  0  0  0  0  0  0  0  0
   -6.1788   -0.7955   -1.4439 H   0  0  0  0  0  0  0  0  0  0  0  0
    5.6941   -0.4871    1.0461 H   0  0  0  0  0  0  0  0  0  0  0  0
    5.1615   -2.7046    2.1247 H   0  0  0  0  0  0  0  0  0  0  0  0
  1  2  1  0
  1 29  1  0
  1 30  1  0
  1 31  1  0
  2  3  2  0
  2  7  1  0
  3  4  1  0
  3 32  1  0
  4  5  2  0
  4 12  1  0
  5  6  1  0
  5 33  1  0
  6  7  2  0
  6 11  1  0
  7  8  1  0
  8  9  2  0
  9 10  1  0
  9 11  1  0
 10 34  1  0
 12 13  1  0
 12 24  1  0
 13 14  1  0
 13 18  2  0
 14 15  2  0
 14 23  1  0
 15 16  1  0
 15 35  1  0
 16 17  2  0
 16 36  1  0
 17 18  1  0
 17 19  1  0
 19 20  1  0
 19 21  1  0
 19 22  1  0
 23 24  2  0
 24 25  1  0
 25 26  1  0
 25 27  1  0
 25 28  1  0
M  END
>  <group_name>  (1) 
JNS

>  <molecule_index>  (1) 
01548

>  <conformer_index>  (1) 
01

>  <method>  (1) 
b3lyp-d3bj

>  <basis>  (1) 
dzvp

>  <program>  (1) 
psi4

>  <initial_energy>  (1) 
-1196157.8214594787 kilocalorie / mole

>  <final_energy>  (1) 
-1196233.4590845264 kilocalorie / mole

$$$$
