JNS-01155-05
     RDKit          3D

 46 50  0  0  0  0  0  0  0  0999 V2000
    0.1720   -1.7859   -1.7972 F   0  0  0  0  0  0  0  0  0  0  0  0
    0.3960   -0.5106   -1.4003 C   0  0  0  0  0  0  0  0  0  0  0  0
   -0.5856   -0.1937   -0.5130 F   0  0  0  0  0  0  0  0  0  0  0  0
    0.2530    0.2904   -2.4648 F   0  0  0  0  0  0  0  0  0  0  0  0
    1.7652   -0.3572   -0.7898 C   0  0  0  0  0  0  0  0  0  0  0  0
    2.5993    0.5967   -1.1330 N   0  0  0  0  0  0  0  0  0  0  0  0
    3.7311    0.3854   -0.3606 C   0  0  0  0  0  0  0  0  0  0  0  0
    3.5409   -0.7492    0.4612 C   0  0  0  0  0  0  0  0  0  0  0  0
    4.3979   -1.3008    1.3153 N   0  0  0  0  0  0  0  0  0  0  0  0
    5.5618   -0.6447    1.3602 C   0  0  0  0  0  0  0  0  0  0  0  0
    5.8976    0.4910    0.6143 C   0  0  0  0  0  0  0  0  0  0  0  0
    4.9829    1.0606   -0.3065 C   0  0  0  0  0  0  0  0  0  0  0  0
    5.2995    2.1373   -1.1006 N   0  0  0  0  0  0  0  0  0  0  0  0
    4.2588    3.1149   -1.4709 C   0  0  0  0  0  0  0  0  0  0  0  0
    4.6716    3.8768   -2.7227 C   0  0  0  0  0  0  0  0  0  0  0  0
    5.9415    4.5063   -2.5598 O   0  0  0  0  0  0  0  0  0  0  0  0
    6.9364    3.5295   -2.2866 C   0  0  0  0  0  0  0  0  0  0  0  0
    6.6350    2.7332   -1.0168 C   0  0  0  0  0  0  0  0  0  0  0  0
    6.5676   -1.2390    2.3315 C   0  0  0  0  0  0  0  0  0  0  0  0
    7.7170   -0.5162    2.3790 F   0  0  0  0  0  0  0  0  0  0  0  0
    6.9084   -2.5009    1.9784 F   0  0  0  0  0  0  0  0  0  0  0  0
    6.0783   -1.2913    3.5894 F   0  0  0  0  0  0  0  0  0  0  0  0
    2.2597   -1.2123    0.1768 N   0  0  0  0  0  0  0  0  0  0  0  0
    1.6443   -2.3575    0.7833 C   0  0  0  0  0  0  0  0  0  0  0  0
    0.5438   -2.1930    1.6084 C   0  0  0  0  0  0  0  0  0  0  0  0
   -0.0234   -3.3462    2.1801 C   0  0  0  0  0  0  0  0  0  0  0  0
    0.5509   -4.6186    1.9174 C   0  0  0  0  0  0  0  0  0  0  0  0
   -0.2110   -5.5166    2.6147 N   0  0  0  0  0  0  0  0  0  0  0  0
   -1.2247   -4.9199    3.3035 N   0  0  0  0  0  0  0  0  0  0  0  0
   -1.1245   -3.6237    3.0527 C   0  0  0  0  0  0  0  0  0  0  0  0
    1.6791   -4.7754    1.0928 C   0  0  0  0  0  0  0  0  0  0  0  0
    2.2140   -3.6294    0.5290 C   0  0  0  0  0  0  0  0  0  0  0  0
    6.8685    0.9353    0.7752 H   0  0  0  0  0  0  0  0  0  0  0  0
    4.1213    3.8246   -0.6406 H   0  0  0  0  0  0  0  0  0  0  0  0
    3.3186    2.5977   -1.6493 H   0  0  0  0  0  0  0  0  0  0  0  0
    4.7013    3.1921   -3.5838 H   0  0  0  0  0  0  0  0  0  0  0  0
    3.9523    4.6727   -2.9291 H   0  0  0  0  0  0  0  0  0  0  0  0
    7.0240    2.8358   -3.1373 H   0  0  0  0  0  0  0  0  0  0  0  0
    7.8823    4.0645   -2.1709 H   0  0  0  0  0  0  0  0  0  0  0  0
    7.3853    1.9441   -0.9332 H   0  0  0  0  0  0  0  0  0  0  0  0
    6.7160    3.3857   -0.1334 H   0  0  0  0  0  0  0  0  0  0  0  0
    0.1400   -1.2047    1.8026 H   0  0  0  0  0  0  0  0  0  0  0  0
   -0.1041   -6.5195    2.6763 H   0  0  0  0  0  0  0  0  0  0  0  0
   -1.8320   -2.9337    3.4953 H   0  0  0  0  0  0  0  0  0  0  0  0
    2.1198   -5.7493    0.9012 H   0  0  0  0  0  0  0  0  0  0  0  0
    3.0875   -3.6913   -0.1116 H   0  0  0  0  0  0  0  0  0  0  0  0
  1  2  1  0
  2  3  1  0
  2  4  1  0
  2  5  1  0
  5  6  2  0
  5 23  1  0
  6  7  1  0
  7  8  2  0
  7 12  1  0
  8  9  1  0
  8 23  1  0
  9 10  2  0
 10 11  1  0
 10 19  1  0
 11 12  2  0
 11 33  1  0
 12 13  1  0
 13 14  1  0
 13 18  1  0
 14 15  1  0
 14 34  1  0
 14 35  1  0
 15 16  1  0
 15 36  1  0
 15 37  1  0
 16 17  1  0
 17 18  1  0
 17 38  1  0
 17 39  1  0
 18 40  1  0
 18 41  1  0
 19 20  1  0
 19 21  1  0
 19 22  1  0
 23 24  1  0
 24 25  2  0
 24 32  1  0
 25 26  1  0
 25 42  1  0
 26 27  2  0
 26 30  1  0
 27 28  1  0
 27 31  1  0
 28 29  1  0
 28 43  1  0
 29 30  2  0
 30 44  1  0
 31 32  2  0
 31 45  1  0
 32 46  1  0
M  END
>  <group_name>  (1) 
JNS

>  <molecule_index>  (1) 
01155

>  <conformer_index>  (1) 
05

>  <method>  (1) 
b3lyp-d3bj

>  <basis>  (1) 
dzvp

>  <program>  (1) 
psi4

>  <initial_energy>  (1) 
-1089023.921177497 kilocalorie / mole

>  <final_energy>  (1) 
-1089102.5880753892 kilocalorie / mole

$$$$
