MRK-00538-02
     RDKit          3D

 43 45  0  0  0  0  0  0  0  0999 V2000
    0.2377   -0.5917   -3.0209 O   0  0  0  0  0  0  0  0  0  0  0  0
    0.3737   -0.5232   -1.7979 C   0  0  0  0  0  0  0  0  0  0  0  0
   -0.6389   -0.6295   -0.9073 N   0  0  0  0  0  0  0  0  0  0  0  0
   -2.0355   -0.7278   -1.3245 C   0  0  0  0  0  0  0  0  0  0  0  0
   -2.5230   -2.1626   -1.3979 C   0  0  0  0  0  0  0  0  0  0  0  0
   -2.0421   -3.0042   -2.4122 C   0  0  0  0  0  0  0  0  0  0  0  0
   -2.4861   -4.3191   -2.4464 C   0  0  0  0  0  0  0  0  0  0  0  0
   -2.0286   -5.1404   -3.4231 F   0  0  0  0  0  0  0  0  0  0  0  0
   -3.3895   -4.8411   -1.5226 C   0  0  0  0  0  0  0  0  0  0  0  0
   -3.8539   -3.9822   -0.5278 C   0  0  0  0  0  0  0  0  0  0  0  0
   -4.9941   -4.5895    0.6585 Cl  0  0  0  0  0  0  0  0  0  0  0  0
   -3.4326   -2.6517   -0.4543 C   0  0  0  0  0  0  0  0  0  0  0  0
    1.7502   -0.2740   -1.1501 C   0  0  1  0  0  0  0  0  0  0  0  0
    1.8265   -0.8072    0.1813 O   0  0  0  0  0  0  0  0  0  0  0  0
    2.9226   -0.6823   -2.0360 C   0  0  0  0  0  0  0  0  0  0  0  0
    4.0205    0.3342   -1.6988 C   0  0  0  0  0  0  0  0  0  0  0  0
    3.2696    1.5339   -1.2948 N   0  0  0  0  0  0  0  0  0  0  0  0
    3.8979    2.7825   -1.1305 C   0  0  0  0  0  0  0  0  0  0  0  0
    3.1797    3.9736   -0.9327 C   0  0  0  0  0  0  0  0  0  0  0  0
    3.8880    5.1660   -0.7984 C   0  0  0  0  0  0  0  0  0  0  0  0
    5.2802    5.1329   -0.8648 C   0  0  0  0  0  0  0  0  0  0  0  0
    6.1136    6.3916   -0.7273 C   0  0  0  0  0  0  0  0  0  0  0  0
    5.3306    7.4877   -0.5540 F   0  0  0  0  0  0  0  0  0  0  0  0
    6.8728    6.6112   -1.8243 F   0  0  0  0  0  0  0  0  0  0  0  0
    6.9497    6.3253    0.3334 F   0  0  0  0  0  0  0  0  0  0  0  0
    5.9786    4.0095   -1.0490 N   0  0  0  0  0  0  0  0  0  0  0  0
    5.3056    2.8680   -1.1771 C   0  0  0  0  0  0  0  0  0  0  0  0
    1.9637    1.2472   -0.9498 C   0  0  0  0  0  0  0  0  0  0  0  0
    1.1182    2.0180   -0.5259 O   0  0  0  0  0  0  0  0  0  0  0  0
   -0.4116   -0.5004    0.0715 H   0  0  0  0  0  0  0  0  0  0  0  0
   -2.1156   -0.2538   -2.3056 H   0  0  0  0  0  0  0  0  0  0  0  0
   -2.6415   -0.1550   -0.6184 H   0  0  0  0  0  0  0  0  0  0  0  0
   -1.3403   -2.6392   -3.1560 H   0  0  0  0  0  0  0  0  0  0  0  0
   -3.7128   -5.8741   -1.5888 H   0  0  0  0  0  0  0  0  0  0  0  0
   -3.8146   -2.0078    0.3322 H   0  0  0  0  0  0  0  0  0  0  0  0
    1.8498   -1.7765    0.1134 H   0  0  0  0  0  0  0  0  0  0  0  0
    2.6155   -0.5888   -3.0792 H   0  0  0  0  0  0  0  0  0  0  0  0
    3.2423   -1.7126   -1.8590 H   0  0  0  0  0  0  0  0  0  0  0  0
    4.6514    0.5579   -2.5622 H   0  0  0  0  0  0  0  0  0  0  0  0
    4.6584   -0.0050   -0.8750 H   0  0  0  0  0  0  0  0  0  0  0  0
    2.1002    3.9602   -0.8797 H   0  0  0  0  0  0  0  0  0  0  0  0
    3.3623    6.1022   -0.6475 H   0  0  0  0  0  0  0  0  0  0  0  0
    5.9137    1.9788   -1.3174 H   0  0  0  0  0  0  0  0  0  0  0  0
  1  2  2  0
  2  3  1  0
  2 13  1  0
  3  4  1  0
  3 30  1  0
  4  5  1  0
  4 31  1  0
  4 32  1  0
  5  6  2  0
  5 12  1  0
  6  7  1  0
  6 33  1  0
  7  8  1  0
  7  9  2  0
  9 10  1  0
  9 34  1  0
 10 11  1  0
 10 12  2  0
 12 35  1  0
 13 14  1  1
 13 15  1  0
 13 28  1  0
 14 36  1  0
 15 16  1  0
 15 37  1  0
 15 38  1  0
 16 17  1  0
 16 39  1  0
 16 40  1  0
 17 18  1  0
 17 28  1  0
 18 19  2  0
 18 27  1  0
 19 20  1  0
 19 41  1  0
 20 21  2  0
 20 42  1  0
 21 22  1  0
 21 26  1  0
 22 23  1  0
 22 24  1  0
 22 25  1  0
 26 27  2  0
 27 43  1  0
 28 29  2  0
M  END
>  <group_name>  (1) 
MRK

>  <molecule_index>  (1) 
00538

>  <conformer_index>  (1) 
02

>  <method>  (1) 
b3lyp-d3bj

>  <basis>  (1) 
dzvp

>  <program>  (1) 
psi4

>  <initial_energy>  (1) 
-1219925.0116174852 kilocalorie / mole

>  <final_energy>  (1) 
-1219970.2205858065 kilocalorie / mole

$$$$
