MRK-00792-06
     RDKit          3D

 54 56  0  0  0  0  0  0  0  0999 V2000
   -2.9535    1.1484   -3.1422 O   0  0  0  0  0  0  0  0  0  0  0  0
   -3.8893    0.5733   -2.5819 C   0  0  0  0  0  0  0  0  0  0  0  0
   -4.7458   -0.2629   -3.2245 N   0  0  0  0  0  0  0  0  0  0  0  0
   -4.4178   -0.7857   -4.5397 C   0  0  0  0  0  0  0  0  0  0  0  0
   -3.4760   -1.9833   -4.4940 C   0  0  0  0  0  0  0  0  0  0  0  0
   -3.3490   -2.8166   -5.6168 C   0  0  0  0  0  0  0  0  0  0  0  0
   -2.4615   -3.8870   -5.5682 C   0  0  0  0  0  0  0  0  0  0  0  0
   -1.7191   -4.0998   -4.4006 C   0  0  0  0  0  0  0  0  0  0  0  0
   -1.9205   -3.2160   -3.3456 C   0  0  0  0  0  0  0  0  0  0  0  0
   -1.1303   -3.3449   -2.0577 C   0  0  0  0  0  0  0  0  0  0  0  0
   -1.9344   -3.2988   -0.9654 F   0  0  0  0  0  0  0  0  0  0  0  0
   -0.4261   -4.4881   -2.0006 F   0  0  0  0  0  0  0  0  0  0  0  0
   -0.2449   -2.3157   -1.9258 F   0  0  0  0  0  0  0  0  0  0  0  0
   -2.7736   -2.1830   -3.3750 N   0  0  0  0  0  0  0  0  0  0  0  0
   -4.1316    0.7401   -1.0772 C   0  0  1  0  0  0  0  0  0  0  0  0
   -3.4829   -0.4367   -0.3119 C   0  0  0  0  0  0  0  0  0  0  0  0
   -2.0011   -0.0877   -0.3551 C   0  0  0  0  0  0  0  0  0  0  0  0
   -1.9700    1.4306   -0.1906 N   0  0  1  0  0  0  0  0  0  0  0  0
   -0.8302    2.1044   -0.9559 C   0  0  0  0  0  0  0  0  0  0  0  0
    0.4865    1.5629   -0.4763 C   0  0  0  0  0  0  0  0  0  0  0  0
    1.1890    0.6204   -1.2279 C   0  0  0  0  0  0  0  0  0  0  0  0
    2.3518    0.0479   -0.6956 C   0  0  0  0  0  0  0  0  0  0  0  0
    2.7958    0.3974    0.5752 C   0  0  0  0  0  0  0  0  0  0  0  0
    2.0877    1.3470    1.3299 C   0  0  0  0  0  0  0  0  0  0  0  0
    2.6118    1.6076    2.5716 O   0  0  0  0  0  0  0  0  0  0  0  0
    2.0604    2.6135    3.3974 C   0  0  0  0  0  0  0  0  0  0  0  0
    0.9053    2.1037    4.2616 C   0  0  0  0  0  0  0  0  0  0  0  0
    0.5181    3.0805    5.1083 F   0  0  0  0  0  0  0  0  0  0  0  0
    1.2493    1.0241    4.9777 F   0  0  0  0  0  0  0  0  0  0  0  0
   -0.1926    1.7591    3.5196 F   0  0  0  0  0  0  0  0  0  0  0  0
    0.9430    1.9434    0.7973 C   0  0  0  0  0  0  0  0  0  0  0  0
   -3.3636    1.9550   -0.5522 C   0  0  0  0  0  0  0  0  0  0  0  0
   -5.3866   -0.8063   -2.6588 H   0  0  0  0  0  0  0  0  0  0  0  0
   -3.9441    0.0206   -5.1058 H   0  0  0  0  0  0  0  0  0  0  0  0
   -5.3424   -1.0528   -5.0578 H   0  0  0  0  0  0  0  0  0  0  0  0
   -3.9409   -2.6257   -6.5080 H   0  0  0  0  0  0  0  0  0  0  0  0
   -2.3475   -4.5503   -6.4206 H   0  0  0  0  0  0  0  0  0  0  0  0
   -1.0173   -4.9217   -4.3155 H   0  0  0  0  0  0  0  0  0  0  0  0
   -5.1992    0.8291   -0.8593 H   0  0  0  0  0  0  0  0  0  0  0  0
   -3.8574   -0.4710    0.7163 H   0  0  0  0  0  0  0  0  0  0  0  0
   -3.6561   -1.4060   -0.7793 H   0  0  0  0  0  0  0  0  0  0  0  0
   -1.5723   -0.3142   -1.3278 H   0  0  0  0  0  0  0  0  0  0  0  0
   -1.3893   -0.5436    0.4212 H   0  0  0  0  0  0  0  0  0  0  0  0
   -1.0293    1.9074   -2.0086 H   0  0  0  0  0  0  0  0  0  0  0  0
   -0.9356    3.1749   -0.7611 H   0  0  0  0  0  0  0  0  0  0  0  0
    0.8347    0.3269   -2.2117 H   0  0  0  0  0  0  0  0  0  0  0  0
    2.9081   -0.6838   -1.2737 H   0  0  0  0  0  0  0  0  0  0  0  0
    3.6885   -0.0467    1.0050 H   0  0  0  0  0  0  0  0  0  0  0  0
    2.8559    2.9166    4.0808 H   0  0  0  0  0  0  0  0  0  0  0  0
    1.7290    3.4934    2.8383 H   0  0  0  0  0  0  0  0  0  0  0  0
    0.3893    2.6887    1.3583 H   0  0  0  0  0  0  0  0  0  0  0  0
   -3.2538    2.7449   -1.2921 H   0  0  0  0  0  0  0  0  0  0  0  0
   -3.8130    2.3528    0.3585 H   0  0  0  0  0  0  0  0  0  0  0  0
   -1.8016    1.6218    0.7999 H   0  0  0  0  0  0  0  0  0  0  0  0
  1  2  2  0
  2  3  1  0
  2 15  1  0
  3  4  1  0
  3 33  1  0
  4  5  1  0
  4 34  1  0
  4 35  1  0
  5  6  2  0
  5 14  1  0
  6  7  1  0
  6 36  1  0
  7  8  2  0
  7 37  1  0
  8  9  1  0
  8 38  1  0
  9 10  1  0
  9 14  2  0
 10 11  1  0
 10 12  1  0
 10 13  1  0
 15 16  1  0
 15 32  1  0
 15 39  1  6
 16 17  1  0
 16 40  1  0
 16 41  1  0
 17 18  1  0
 17 42  1  0
 17 43  1  0
 18 19  1  0
 18 32  1  0
 18 54  1  1
 19 20  1  0
 19 44  1  0
 19 45  1  0
 20 21  2  0
 20 31  1  0
 21 22  1  0
 21 46  1  0
 22 23  2  0
 22 47  1  0
 23 24  1  0
 23 48  1  0
 24 25  1  0
 24 31  2  0
 25 26  1  0
 26 27  1  0
 26 49  1  0
 26 50  1  0
 27 28  1  0
 27 29  1  0
 27 30  1  0
 31 51  1  0
 32 52  1  0
 32 53  1  0
M  CHG  1  18   1
M  END
>  <group_name>  (1) 
MRK

>  <molecule_index>  (1) 
00792

>  <conformer_index>  (1) 
06

>  <method>  (1) 
b3lyp-d3bj

>  <basis>  (1) 
dzvp

>  <program>  (1) 
psi4

>  <initial_energy>  (1) 
-1083853.6301371485 kilocalorie / mole

>  <final_energy>  (1) 
-1083976.4556929618 kilocalorie / mole

$$$$
