MRK-01088-00
     RDKit          3D

 48 50  0  0  0  0  0  0  0  0999 V2000
    1.9275    1.3683   -1.2003 C   0  0  0  0  0  0  0  0  0  0  0  0
    1.1509    0.4156   -0.2855 C   0  0  1  0  0  0  0  0  0  0  0  0
    1.8775   -0.7953   -0.0881 O   0  0  0  0  0  0  0  0  0  0  0  0
    0.9005    1.1186    1.0848 C   0  0  0  0  0  0  0  0  0  0  0  0
    0.8833    2.3517    1.0951 O   0  0  0  0  0  0  0  0  0  0  0  0
    0.7363    0.3888    2.2205 N   0  0  0  0  0  0  0  0  0  0  0  0
    0.6169   -1.0629    2.3905 C   0  0  0  0  0  0  0  0  0  0  0  0
    1.8336   -1.6239    3.1513 C   0  0  0  0  0  0  0  0  0  0  0  0
    2.4081   -0.5578    4.1081 C   0  0  0  0  0  0  0  0  0  0  0  0
    3.2499   -1.1519    5.2020 C   0  0  0  0  0  0  0  0  0  0  0  0
    3.3974   -2.4635    5.6222 C   0  0  0  0  0  0  0  0  0  0  0  0
    4.2297   -2.4064    6.7691 C   0  0  0  0  0  0  0  0  0  0  0  0
    4.5838   -1.1607    7.0608 N   0  0  0  0  0  0  0  0  0  0  0  0
    3.9951   -0.3969    6.0889 N   0  0  0  0  0  0  0  0  0  0  0  0
    4.1508    1.0070    6.1629 C   0  0  0  0  0  0  0  0  0  0  0  0
    4.4678    1.7838    5.0486 C   0  0  0  0  0  0  0  0  0  0  0  0
    4.5770    3.1668    5.2055 C   0  0  0  0  0  0  0  0  0  0  0  0
    4.3887    3.6998    6.4793 C   0  0  0  0  0  0  0  0  0  0  0  0
    4.4844    5.1933    6.7322 C   0  0  0  0  0  0  0  0  0  0  0  0
    3.3240    5.6887    7.2160 F   0  0  0  0  0  0  0  0  0  0  0  0
    4.7674    5.8710    5.5900 F   0  0  0  0  0  0  0  0  0  0  0  0
    5.4546    5.4869    7.6246 F   0  0  0  0  0  0  0  0  0  0  0  0
    4.1177    2.9620    7.5624 N   0  0  0  0  0  0  0  0  0  0  0  0
    3.9994    1.6456    7.4071 C   0  0  0  0  0  0  0  0  0  0  0  0
    1.2409    0.3010    4.6415 C   0  0  0  0  0  0  0  0  0  0  0  0
    0.6576    1.1371    3.4889 C   0  0  0  0  0  0  0  0  0  0  0  0
   -0.2062    0.0708   -0.9494 C   0  0  0  0  0  0  0  0  0  0  0  0
   -0.9122    1.1725   -1.2616 F   0  0  0  0  0  0  0  0  0  0  0  0
    0.0070   -0.6233   -2.1021 F   0  0  0  0  0  0  0  0  0  0  0  0
   -0.9906   -0.7072   -0.1678 F   0  0  0  0  0  0  0  0  0  0  0  0
    1.3976    2.3094   -1.3355 H   0  0  0  0  0  0  0  0  0  0  0  0
    2.8954    1.5788   -0.7413 H   0  0  0  0  0  0  0  0  0  0  0  0
    2.0888    0.8992   -2.1764 H   0  0  0  0  0  0  0  0  0  0  0  0
    2.1700   -1.1125   -0.9590 H   0  0  0  0  0  0  0  0  0  0  0  0
   -0.3023   -1.2393    2.9613 H   0  0  0  0  0  0  0  0  0  0  0  0
    0.5003   -1.5562    1.4346 H   0  0  0  0  0  0  0  0  0  0  0  0
    1.5071   -2.5057    3.7107 H   0  0  0  0  0  0  0  0  0  0  0  0
    2.6048   -1.9425    2.4451 H   0  0  0  0  0  0  0  0  0  0  0  0
    3.0334    0.1026    3.4992 H   0  0  0  0  0  0  0  0  0  0  0  0
    2.9617   -3.3435    5.1718 H   0  0  0  0  0  0  0  0  0  0  0  0
    4.5879   -3.2204    7.3874 H   0  0  0  0  0  0  0  0  0  0  0  0
    4.6481    1.3257    4.0829 H   0  0  0  0  0  0  0  0  0  0  0  0
    4.8171    3.8064    4.3639 H   0  0  0  0  0  0  0  0  0  0  0  0
    3.7831    1.0521    8.2912 H   0  0  0  0  0  0  0  0  0  0  0  0
    1.5650    0.9821    5.4317 H   0  0  0  0  0  0  0  0  0  0  0  0
    0.4887   -0.3592    5.0868 H   0  0  0  0  0  0  0  0  0  0  0  0
    1.2260    2.0590    3.3592 H   0  0  0  0  0  0  0  0  0  0  0  0
   -0.3818    1.4236    3.6914 H   0  0  0  0  0  0  0  0  0  0  0  0
  1  2  1  0
  1 31  1  0
  1 32  1  0
  1 33  1  0
  2  3  1  1
  2  4  1  0
  2 27  1  0
  3 34  1  0
  4  5  2  0
  4  6  1  0
  6  7  1  0
  6 26  1  0
  7  8  1  0
  7 35  1  0
  7 36  1  0
  8  9  1  0
  8 37  1  0
  8 38  1  0
  9 10  1  0
  9 25  1  0
  9 39  1  0
 10 11  2  0
 10 14  1  0
 11 12  1  0
 11 40  1  0
 12 13  2  0
 12 41  1  0
 13 14  1  0
 14 15  1  0
 15 16  2  0
 15 24  1  0
 16 17  1  0
 16 42  1  0
 17 18  2  0
 17 43  1  0
 18 19  1  0
 18 23  1  0
 19 20  1  0
 19 21  1  0
 19 22  1  0
 23 24  2  0
 24 44  1  0
 25 26  1  0
 25 45  1  0
 25 46  1  0
 26 47  1  0
 26 48  1  0
 27 28  1  0
 27 29  1  0
 27 30  1  0
M  END
>  <group_name>  (1) 
MRK

>  <molecule_index>  (1) 
01088

>  <conformer_index>  (1) 
00

>  <method>  (1) 
b3lyp-d3bj

>  <basis>  (1) 
dzvp

>  <program>  (1) 
psi4

>  <initial_energy>  (1) 
-1045142.3018130221 kilocalorie / mole

>  <final_energy>  (1) 
-1045189.8511455168 kilocalorie / mole

$$$$
