MRK-00538-04
     RDKit          3D

 43 45  0  0  0  0  0  0  0  0999 V2000
    2.0525   -2.6494   -1.3953 O   0  0  0  0  0  0  0  0  0  0  0  0
    1.4623   -1.9982   -0.5351 C   0  0  0  0  0  0  0  0  0  0  0  0
    0.1699   -2.1865   -0.1651 N   0  0  0  0  0  0  0  0  0  0  0  0
   -0.7213   -3.0834   -0.8848 C   0  0  0  0  0  0  0  0  0  0  0  0
   -1.8604   -2.3664   -1.5886 C   0  0  0  0  0  0  0  0  0  0  0  0
   -1.7087   -1.0577   -2.0636 C   0  0  0  0  0  0  0  0  0  0  0  0
   -2.7762   -0.4743   -2.7382 C   0  0  0  0  0  0  0  0  0  0  0  0
   -2.6407    0.7913   -3.2004 F   0  0  0  0  0  0  0  0  0  0  0  0
   -3.9845   -1.1261   -2.9650 C   0  0  0  0  0  0  0  0  0  0  0  0
   -4.1061   -2.4280   -2.4787 C   0  0  0  0  0  0  0  0  0  0  0  0
   -5.6127   -3.2928   -2.7292 Cl  0  0  0  0  0  0  0  0  0  0  0  0
   -3.0654   -3.0525   -1.7918 C   0  0  0  0  0  0  0  0  0  0  0  0
    2.1632   -0.8392    0.2004 C   0  0  1  0  0  0  0  0  0  0  0  0
    1.5206   -0.4948    1.4373 O   0  0  0  0  0  0  0  0  0  0  0  0
    3.6717   -1.0248    0.3346 C   0  0  0  0  0  0  0  0  0  0  0  0
    4.2320    0.3997    0.2401 C   0  0  0  0  0  0  0  0  0  0  0  0
    3.2523    1.1007   -0.6040 N   0  0  0  0  0  0  0  0  0  0  0  0
    3.5236    2.3728   -1.1453 C   0  0  0  0  0  0  0  0  0  0  0  0
    4.6457    3.0932   -0.7136 C   0  0  0  0  0  0  0  0  0  0  0  0
    4.9178    4.3388   -1.2780 C   0  0  0  0  0  0  0  0  0  0  0  0
    4.0535    4.8177   -2.2586 C   0  0  0  0  0  0  0  0  0  0  0  0
    4.2828    6.1566   -2.9321 C   0  0  0  0  0  0  0  0  0  0  0  0
    4.4559    6.0225   -4.2658 F   0  0  0  0  0  0  0  0  0  0  0  0
    3.2434    6.9979   -2.7416 F   0  0  0  0  0  0  0  0  0  0  0  0
    5.3925    6.7713   -2.4430 F   0  0  0  0  0  0  0  0  0  0  0  0
    2.9773    4.1476   -2.6813 N   0  0  0  0  0  0  0  0  0  0  0  0
    2.7105    2.9586   -2.1447 C   0  0  0  0  0  0  0  0  0  0  0  0
    2.0395    0.4458   -0.6555 C   0  0  0  0  0  0  0  0  0  0  0  0
    1.0246    0.8016   -1.2323 O   0  0  0  0  0  0  0  0  0  0  0  0
   -0.2237   -1.5055    0.4753 H   0  0  0  0  0  0  0  0  0  0  0  0
   -0.1017   -3.6121   -1.6144 H   0  0  0  0  0  0  0  0  0  0  0  0
   -1.1281   -3.8316   -0.1958 H   0  0  0  0  0  0  0  0  0  0  0  0
   -0.7948   -0.4909   -1.9126 H   0  0  0  0  0  0  0  0  0  0  0  0
   -4.7907   -0.6298   -3.4938 H   0  0  0  0  0  0  0  0  0  0  0  0
   -3.1954   -4.0646   -1.4202 H   0  0  0  0  0  0  0  0  0  0  0  0
    1.7369   -1.1840    2.0873 H   0  0  0  0  0  0  0  0  0  0  0  0
    4.0192   -1.6320   -0.5032 H   0  0  0  0  0  0  0  0  0  0  0  0
    3.9526   -1.5219    1.2671 H   0  0  0  0  0  0  0  0  0  0  0  0
    4.2978    0.8827    1.2219 H   0  0  0  0  0  0  0  0  0  0  0  0
    5.2179    0.4232   -0.2304 H   0  0  0  0  0  0  0  0  0  0  0  0
    5.3012    2.7029    0.0566 H   0  0  0  0  0  0  0  0  0  0  0  0
    5.7782    4.9169   -0.9606 H   0  0  0  0  0  0  0  0  0  0  0  0
    1.8275    2.4461   -2.5046 H   0  0  0  0  0  0  0  0  0  0  0  0
  1  2  2  0
  2  3  1  0
  2 13  1  0
  3  4  1  0
  3 30  1  0
  4  5  1  0
  4 31  1  0
  4 32  1  0
  5  6  2  0
  5 12  1  0
  6  7  1  0
  6 33  1  0
  7  8  1  0
  7  9  2  0
  9 10  1  0
  9 34  1  0
 10 11  1  0
 10 12  2  0
 12 35  1  0
 13 14  1  1
 13 15  1  0
 13 28  1  0
 14 36  1  0
 15 16  1  0
 15 37  1  0
 15 38  1  0
 16 17  1  0
 16 39  1  0
 16 40  1  0
 17 18  1  0
 17 28  1  0
 18 19  2  0
 18 27  1  0
 19 20  1  0
 19 41  1  0
 20 21  2  0
 20 42  1  0
 21 22  1  0
 21 26  1  0
 22 23  1  0
 22 24  1  0
 22 25  1  0
 26 27  2  0
 27 43  1  0
 28 29  2  0
M  END
>  <group_name>  (1) 
MRK

>  <molecule_index>  (1) 
00538

>  <conformer_index>  (1) 
04

>  <method>  (1) 
b3lyp-d3bj

>  <basis>  (1) 
dzvp

>  <program>  (1) 
psi4

>  <initial_energy>  (1) 
-1219925.3078152544 kilocalorie / mole

>  <final_energy>  (1) 
-1219970.1659473425 kilocalorie / mole

$$$$
