MRK-00792-03
     RDKit          3D

 54 56  0  0  0  0  0  0  0  0999 V2000
    0.3824   -1.1530   -0.6687 O   0  0  0  0  0  0  0  0  0  0  0  0
   -0.2437   -2.1078   -1.1247 C   0  0  0  0  0  0  0  0  0  0  0  0
   -0.3159   -2.4051   -2.4539 N   0  0  0  0  0  0  0  0  0  0  0  0
   -0.0547   -1.3854   -3.4537 C   0  0  0  0  0  0  0  0  0  0  0  0
   -1.3440   -0.7587   -3.9692 C   0  0  0  0  0  0  0  0  0  0  0  0
   -1.3079    0.2539   -4.9421 C   0  0  0  0  0  0  0  0  0  0  0  0
   -2.5055    0.7983   -5.3935 C   0  0  0  0  0  0  0  0  0  0  0  0
   -3.7150    0.3139   -4.8747 C   0  0  0  0  0  0  0  0  0  0  0  0
   -3.6407   -0.6990   -3.9259 C   0  0  0  0  0  0  0  0  0  0  0  0
   -4.8879   -1.3157   -3.3196 C   0  0  0  0  0  0  0  0  0  0  0  0
   -4.9184   -1.1227   -1.9613 F   0  0  0  0  0  0  0  0  0  0  0  0
   -6.0150   -0.7805   -3.8179 F   0  0  0  0  0  0  0  0  0  0  0  0
   -4.9297   -2.6486   -3.5139 F   0  0  0  0  0  0  0  0  0  0  0  0
   -2.4932   -1.2226   -3.4726 N   0  0  0  0  0  0  0  0  0  0  0  0
   -1.0779   -3.0241   -0.2204 C   0  0  1  0  0  0  0  0  0  0  0  0
   -0.5001   -3.1280    1.2019 C   0  0  0  0  0  0  0  0  0  0  0  0
   -0.9962   -1.8603    1.8859 C   0  0  0  0  0  0  0  0  0  0  0  0
   -2.4108   -1.6833    1.3487 N   0  0  1  0  0  0  0  0  0  0  0  0
   -2.9539   -0.2432    1.3946 C   0  0  0  0  0  0  0  0  0  0  0  0
   -2.1703    0.7233    0.5540 C   0  0  0  0  0  0  0  0  0  0  0  0
   -2.5505    0.9750   -0.7739 C   0  0  0  0  0  0  0  0  0  0  0  0
   -1.7905    1.8442   -1.5530 C   0  0  0  0  0  0  0  0  0  0  0  0
   -0.6548    2.4720   -1.0327 C   0  0  0  0  0  0  0  0  0  0  0  0
   -0.2925    2.2376    0.3003 C   0  0  0  0  0  0  0  0  0  0  0  0
    0.7785    2.8015    0.9275 O   0  0  0  0  0  0  0  0  0  0  0  0
    1.5922    3.7003    0.1945 C   0  0  0  0  0  0  0  0  0  0  0  0
    2.6954    4.1722    1.1321 C   0  0  0  0  0  0  0  0  0  0  0  0
    3.4900    5.0406    0.4662 F   0  0  0  0  0  0  0  0  0  0  0  0
    3.4595    3.1474    1.5599 F   0  0  0  0  0  0  0  0  0  0  0  0
    2.1974    4.8011    2.2139 F   0  0  0  0  0  0  0  0  0  0  0  0
   -1.0595    1.3742    1.0929 C   0  0  0  0  0  0  0  0  0  0  0  0
   -2.4629   -2.3650   -0.0230 C   0  0  0  0  0  0  0  0  0  0  0  0
   -0.9995   -3.1032   -2.7224 H   0  0  0  0  0  0  0  0  0  0  0  0
    0.5779   -0.6243   -2.9917 H   0  0  0  0  0  0  0  0  0  0  0  0
    0.5044   -1.8164   -4.2911 H   0  0  0  0  0  0  0  0  0  0  0  0
   -0.3552    0.6019   -5.3323 H   0  0  0  0  0  0  0  0  0  0  0  0
   -2.5074    1.5846   -6.1429 H   0  0  0  0  0  0  0  0  0  0  0  0
   -4.6714    0.7022   -5.2063 H   0  0  0  0  0  0  0  0  0  0  0  0
   -1.1959   -4.0101   -0.6757 H   0  0  0  0  0  0  0  0  0  0  0  0
    0.5901   -3.1658    1.2041 H   0  0  0  0  0  0  0  0  0  0  0  0
   -0.8789   -4.0263    1.7000 H   0  0  0  0  0  0  0  0  0  0  0  0
   -1.0412   -1.9007    2.9755 H   0  0  0  0  0  0  0  0  0  0  0  0
   -0.4150   -1.0051    1.5531 H   0  0  0  0  0  0  0  0  0  0  0  0
   -3.9924   -0.3171    1.0655 H   0  0  0  0  0  0  0  0  0  0  0  0
   -2.9389    0.0308    2.4520 H   0  0  0  0  0  0  0  0  0  0  0  0
   -3.4427    0.5177   -1.1855 H   0  0  0  0  0  0  0  0  0  0  0  0
   -2.0887    2.0482   -2.5769 H   0  0  0  0  0  0  0  0  0  0  0  0
   -0.0819    3.1449   -1.6610 H   0  0  0  0  0  0  0  0  0  0  0  0
    2.0622    3.2110   -0.6655 H   0  0  0  0  0  0  0  0  0  0  0  0
    1.0281    4.5784   -0.1380 H   0  0  0  0  0  0  0  0  0  0  0  0
   -0.7637    1.2398    2.1298 H   0  0  0  0  0  0  0  0  0  0  0  0
   -2.6894   -1.6219   -0.7822 H   0  0  0  0  0  0  0  0  0  0  0  0
   -3.2740   -3.0933    0.0053 H   0  0  0  0  0  0  0  0  0  0  0  0
   -3.0262   -2.2202    1.9640 H   0  0  0  0  0  0  0  0  0  0  0  0
  1  2  2  0
  2  3  1  0
  2 15  1  0
  3  4  1  0
  3 33  1  0
  4  5  1  0
  4 34  1  0
  4 35  1  0
  5  6  2  0
  5 14  1  0
  6  7  1  0
  6 36  1  0
  7  8  2  0
  7 37  1  0
  8  9  1  0
  8 38  1  0
  9 10  1  0
  9 14  2  0
 10 11  1  0
 10 12  1  0
 10 13  1  0
 15 16  1  0
 15 32  1  0
 15 39  1  6
 16 17  1  0
 16 40  1  0
 16 41  1  0
 17 18  1  0
 17 42  1  0
 17 43  1  0
 18 19  1  0
 18 32  1  0
 18 54  1  1
 19 20  1  0
 19 44  1  0
 19 45  1  0
 20 21  2  0
 20 31  1  0
 21 22  1  0
 21 46  1  0
 22 23  2  0
 22 47  1  0
 23 24  1  0
 23 48  1  0
 24 25  1  0
 24 31  2  0
 25 26  1  0
 26 27  1  0
 26 49  1  0
 26 50  1  0
 27 28  1  0
 27 29  1  0
 27 30  1  0
 31 51  1  0
 32 52  1  0
 32 53  1  0
M  CHG  1  18   1
M  END
>  <group_name>  (1) 
MRK

>  <molecule_index>  (1) 
00792

>  <conformer_index>  (1) 
03

>  <method>  (1) 
b3lyp-d3bj

>  <basis>  (1) 
dzvp

>  <program>  (1) 
psi4

>  <initial_energy>  (1) 
-1083888.3920542544 kilocalorie / mole

>  <final_energy>  (1) 
-1083972.0929291507 kilocalorie / mole

$$$$
