MRK-00792-05
     RDKit          3D

 54 56  0  0  0  0  0  0  0  0999 V2000
    0.7862   -1.5774   -2.4527 O   0  0  0  0  0  0  0  0  0  0  0  0
   -0.1600   -2.3663   -2.5093 C   0  0  0  0  0  0  0  0  0  0  0  0
   -1.0802   -2.3642   -3.5084 N   0  0  0  0  0  0  0  0  0  0  0  0
   -1.2732   -1.1705   -4.3150 C   0  0  0  0  0  0  0  0  0  0  0  0
   -2.2706   -0.2071   -3.6787 C   0  0  0  0  0  0  0  0  0  0  0  0
   -2.6888    0.9354   -4.3794 C   0  0  0  0  0  0  0  0  0  0  0  0
   -3.6165    1.7849   -3.7899 C   0  0  0  0  0  0  0  0  0  0  0  0
   -4.1142    1.4726   -2.5185 C   0  0  0  0  0  0  0  0  0  0  0  0
   -3.6402    0.3170   -1.9127 C   0  0  0  0  0  0  0  0  0  0  0  0
   -4.1587   -0.1325   -0.5603 C   0  0  0  0  0  0  0  0  0  0  0  0
   -3.1539   -0.2339    0.3571 F   0  0  0  0  0  0  0  0  0  0  0  0
   -4.7274   -1.3603   -0.6349 F   0  0  0  0  0  0  0  0  0  0  0  0
   -5.0715    0.7164   -0.0564 F   0  0  0  0  0  0  0  0  0  0  0  0
   -2.7350   -0.5069   -2.4631 N   0  0  0  0  0  0  0  0  0  0  0  0
   -0.4163   -3.3659   -1.3775 C   0  0  1  0  0  0  0  0  0  0  0  0
    0.8885   -3.9700   -0.7986 C   0  0  0  0  0  0  0  0  0  0  0  0
    0.8171   -3.7232    0.7115 C   0  0  0  0  0  0  0  0  0  0  0  0
    0.0279   -2.4364    0.8277 N   0  0  1  0  0  0  0  0  0  0  0  0
    0.9086   -1.1934    0.6485 C   0  0  0  0  0  0  0  0  0  0  0  0
    0.1159    0.0751    0.7951 C   0  0  0  0  0  0  0  0  0  0  0  0
   -0.3438    0.4742    2.0599 C   0  0  0  0  0  0  0  0  0  0  0  0
   -1.0738    1.6544    2.1874 C   0  0  0  0  0  0  0  0  0  0  0  0
   -1.3341    2.4556    1.0715 C   0  0  0  0  0  0  0  0  0  0  0  0
   -0.8464    2.0688   -0.1814 C   0  0  0  0  0  0  0  0  0  0  0  0
   -1.0320    2.7956   -1.3382 O   0  0  0  0  0  0  0  0  0  0  0  0
   -1.0901    4.2112   -1.2469 C   0  0  0  0  0  0  0  0  0  0  0  0
   -2.5120    4.7378   -1.4266 C   0  0  0  0  0  0  0  0  0  0  0  0
   -2.9701    4.5262   -2.6820 F   0  0  0  0  0  0  0  0  0  0  0  0
   -2.5344    6.0662   -1.1978 F   0  0  0  0  0  0  0  0  0  0  0  0
   -3.3889    4.1497   -0.5770 F   0  0  0  0  0  0  0  0  0  0  0  0
   -0.1377    0.8698   -0.3262 C   0  0  0  0  0  0  0  0  0  0  0  0
   -1.0701   -2.5888   -0.2072 C   0  0  0  0  0  0  0  0  0  0  0  0
   -1.9094   -2.9264   -3.3578 H   0  0  0  0  0  0  0  0  0  0  0  0
   -1.6203   -1.4587   -5.3116 H   0  0  0  0  0  0  0  0  0  0  0  0
   -0.3015   -0.6864   -4.4324 H   0  0  0  0  0  0  0  0  0  0  0  0
   -2.2919    1.1439   -5.3695 H   0  0  0  0  0  0  0  0  0  0  0  0
   -3.9560    2.6772   -4.3055 H   0  0  0  0  0  0  0  0  0  0  0  0
   -4.8423    2.1052   -2.0252 H   0  0  0  0  0  0  0  0  0  0  0  0
   -1.1002   -4.1519   -1.7047 H   0  0  0  0  0  0  0  0  0  0  0  0
    0.9765   -5.0365   -1.0098 H   0  0  0  0  0  0  0  0  0  0  0  0
    1.7519   -3.4639   -1.2331 H   0  0  0  0  0  0  0  0  0  0  0  0
    1.7839   -3.6044    1.2017 H   0  0  0  0  0  0  0  0  0  0  0  0
    0.2446   -4.4973    1.2279 H   0  0  0  0  0  0  0  0  0  0  0  0
    1.3635   -1.2758   -0.3372 H   0  0  0  0  0  0  0  0  0  0  0  0
    1.6757   -1.2819    1.4220 H   0  0  0  0  0  0  0  0  0  0  0  0
   -0.1139   -0.1143    2.9468 H   0  0  0  0  0  0  0  0  0  0  0  0
   -1.4443    1.9629    3.1604 H   0  0  0  0  0  0  0  0  0  0  0  0
   -1.9227    3.3578    1.1897 H   0  0  0  0  0  0  0  0  0  0  0  0
   -0.6993    4.5815   -0.2963 H   0  0  0  0  0  0  0  0  0  0  0  0
   -0.4864    4.6201   -2.0610 H   0  0  0  0  0  0  0  0  0  0  0  0
    0.2230    0.5811   -1.3087 H   0  0  0  0  0  0  0  0  0  0  0  0
   -1.4607   -1.6112   -0.4758 H   0  0  0  0  0  0  0  0  0  0  0  0
   -1.8675   -3.1673    0.2627 H   0  0  0  0  0  0  0  0  0  0  0  0
   -0.4035   -2.3600    1.7529 H   0  0  0  0  0  0  0  0  0  0  0  0
  1  2  2  0
  2  3  1  0
  2 15  1  0
  3  4  1  0
  3 33  1  0
  4  5  1  0
  4 34  1  0
  4 35  1  0
  5  6  2  0
  5 14  1  0
  6  7  1  0
  6 36  1  0
  7  8  2  0
  7 37  1  0
  8  9  1  0
  8 38  1  0
  9 10  1  0
  9 14  2  0
 10 11  1  0
 10 12  1  0
 10 13  1  0
 15 16  1  0
 15 32  1  0
 15 39  1  6
 16 17  1  0
 16 40  1  0
 16 41  1  0
 17 18  1  0
 17 42  1  0
 17 43  1  0
 18 19  1  0
 18 32  1  0
 18 54  1  1
 19 20  1  0
 19 44  1  0
 19 45  1  0
 20 21  2  0
 20 31  1  0
 21 22  1  0
 21 46  1  0
 22 23  2  0
 22 47  1  0
 23 24  1  0
 23 48  1  0
 24 25  1  0
 24 31  2  0
 25 26  1  0
 26 27  1  0
 26 49  1  0
 26 50  1  0
 27 28  1  0
 27 29  1  0
 27 30  1  0
 31 51  1  0
 32 52  1  0
 32 53  1  0
M  CHG  1  18   1
M  END
>  <group_name>  (1) 
MRK

>  <molecule_index>  (1) 
00792

>  <conformer_index>  (1) 
05

>  <method>  (1) 
b3lyp-d3bj

>  <basis>  (1) 
dzvp

>  <program>  (1) 
psi4

>  <initial_energy>  (1) 
-1083885.3644886224 kilocalorie / mole

>  <final_energy>  (1) 
-1083977.5783376126 kilocalorie / mole

$$$$
