MRK-01088-02
     RDKit          3D

 48 50  0  0  0  0  0  0  0  0999 V2000
   -1.3462    0.0187   -0.8060 C   0  0  0  0  0  0  0  0  0  0  0  0
   -0.2004    0.4351    0.1231 C   0  0  1  0  0  0  0  0  0  0  0  0
   -0.4600    1.7124    0.6958 O   0  0  0  0  0  0  0  0  0  0  0  0
   -0.0359   -0.6464    1.2383 C   0  0  0  0  0  0  0  0  0  0  0  0
   -0.3847   -1.7938    0.9528 O   0  0  0  0  0  0  0  0  0  0  0  0
    0.4382   -0.3154    2.4744 N   0  0  0  0  0  0  0  0  0  0  0  0
    1.1344    0.9054    2.9006 C   0  0  0  0  0  0  0  0  0  0  0  0
    2.5923    0.6017    3.2664 C   0  0  0  0  0  0  0  0  0  0  0  0
    2.6982   -0.5219    4.3204 C   0  0  0  0  0  0  0  0  0  0  0  0
    4.1337   -0.8444    4.6322 C   0  0  0  0  0  0  0  0  0  0  0  0
    4.9142   -1.9220    4.2476 C   0  0  0  0  0  0  0  0  0  0  0  0
    6.2279   -1.6159    4.6859 C   0  0  0  0  0  0  0  0  0  0  0  0
    6.2840   -0.4382    5.2979 N   0  0  0  0  0  0  0  0  0  0  0  0
    4.9954    0.0235    5.2734 N   0  0  0  0  0  0  0  0  0  0  0  0
    4.7260    1.2949    5.8290 C   0  0  0  0  0  0  0  0  0  0  0  0
    3.6741    1.5037    6.7204 C   0  0  0  0  0  0  0  0  0  0  0  0
    3.4529    2.7947    7.2036 C   0  0  0  0  0  0  0  0  0  0  0  0
    4.3139    3.8077    6.7851 C   0  0  0  0  0  0  0  0  0  0  0  0
    4.1279    5.2408    7.2491 C   0  0  0  0  0  0  0  0  0  0  0  0
    5.2253    5.7118    7.8766 F   0  0  0  0  0  0  0  0  0  0  0  0
    3.0879    5.3481    8.1169 F   0  0  0  0  0  0  0  0  0  0  0  0
    3.8678    6.0661    6.2098 F   0  0  0  0  0  0  0  0  0  0  0  0
    5.3478    3.6131    5.9581 N   0  0  0  0  0  0  0  0  0  0  0  0
    5.5490    2.3832    5.4901 C   0  0  0  0  0  0  0  0  0  0  0  0
    1.9215   -1.7547    3.8318 C   0  0  0  0  0  0  0  0  0  0  0  0
    0.4781   -1.3763    3.4898 C   0  0  0  0  0  0  0  0  0  0  0  0
    1.1100    0.5272   -0.6986 C   0  0  0  0  0  0  0  0  0  0  0  0
    2.1824    0.8406    0.0675 F   0  0  0  0  0  0  0  0  0  0  0  0
    1.3943   -0.6212   -1.3400 F   0  0  0  0  0  0  0  0  0  0  0  0
    1.0017    1.5074   -1.6360 F   0  0  0  0  0  0  0  0  0  0  0  0
   -2.2688   -0.0190   -0.2238 H   0  0  0  0  0  0  0  0  0  0  0  0
   -1.4591    0.7549   -1.6086 H   0  0  0  0  0  0  0  0  0  0  0  0
   -1.1698   -0.9637   -1.2402 H   0  0  0  0  0  0  0  0  0  0  0  0
   -0.7490    2.3066   -0.0169 H   0  0  0  0  0  0  0  0  0  0  0  0
    0.6051    1.3022    3.7779 H   0  0  0  0  0  0  0  0  0  0  0  0
    1.0852    1.6604    2.1261 H   0  0  0  0  0  0  0  0  0  0  0  0
    3.0559    1.5219    3.6369 H   0  0  0  0  0  0  0  0  0  0  0  0
    3.1393    0.3006    2.3675 H   0  0  0  0  0  0  0  0  0  0  0  0
    2.1958   -0.1694    5.2297 H   0  0  0  0  0  0  0  0  0  0  0  0
    4.5858   -2.7999    3.7096 H   0  0  0  0  0  0  0  0  0  0  0  0
    7.1303   -2.2066    4.5858 H   0  0  0  0  0  0  0  0  0  0  0  0
    3.0565    0.6756    7.0508 H   0  0  0  0  0  0  0  0  0  0  0  0
    2.6471    3.0013    7.8988 H   0  0  0  0  0  0  0  0  0  0  0  0
    6.3930    2.2303    4.8226 H   0  0  0  0  0  0  0  0  0  0  0  0
    1.9228   -2.5362    4.5992 H   0  0  0  0  0  0  0  0  0  0  0  0
    2.3954   -2.1700    2.9359 H   0  0  0  0  0  0  0  0  0  0  0  0
   -0.0714   -2.2349    3.1100 H   0  0  0  0  0  0  0  0  0  0  0  0
   -0.0353   -1.0007    4.3856 H   0  0  0  0  0  0  0  0  0  0  0  0
  1  2  1  0
  1 31  1  0
  1 32  1  0
  1 33  1  0
  2  3  1  1
  2  4  1  0
  2 27  1  0
  3 34  1  0
  4  5  2  0
  4  6  1  0
  6  7  1  0
  6 26  1  0
  7  8  1  0
  7 35  1  0
  7 36  1  0
  8  9  1  0
  8 37  1  0
  8 38  1  0
  9 10  1  0
  9 25  1  0
  9 39  1  0
 10 11  2  0
 10 14  1  0
 11 12  1  0
 11 40  1  0
 12 13  2  0
 12 41  1  0
 13 14  1  0
 14 15  1  0
 15 16  2  0
 15 24  1  0
 16 17  1  0
 16 42  1  0
 17 18  2  0
 17 43  1  0
 18 19  1  0
 18 23  1  0
 19 20  1  0
 19 21  1  0
 19 22  1  0
 23 24  2  0
 24 44  1  0
 25 26  1  0
 25 45  1  0
 25 46  1  0
 26 47  1  0
 26 48  1  0
 27 28  1  0
 27 29  1  0
 27 30  1  0
M  END
>  <group_name>  (1) 
MRK

>  <molecule_index>  (1) 
01088

>  <conformer_index>  (1) 
02

>  <method>  (1) 
b3lyp-d3bj

>  <basis>  (1) 
dzvp

>  <program>  (1) 
psi4

>  <initial_energy>  (1) 
-1045141.0548616048 kilocalorie / mole

>  <final_energy>  (1) 
-1045194.0407864492 kilocalorie / mole

$$$$
