MRK-00538-03
     RDKit          3D

 43 45  0  0  0  0  0  0  0  0999 V2000
    2.1147   -1.3643   -2.3197 O   0  0  0  0  0  0  0  0  0  0  0  0
    1.7884   -1.6482   -1.1658 C   0  0  0  0  0  0  0  0  0  0  0  0
    0.7964   -2.5037   -0.8269 N   0  0  0  0  0  0  0  0  0  0  0  0
   -0.1212   -3.0666   -1.8025 C   0  0  0  0  0  0  0  0  0  0  0  0
   -1.5204   -2.4810   -1.7039 C   0  0  0  0  0  0  0  0  0  0  0  0
   -2.6258   -3.2871   -1.9996 C   0  0  0  0  0  0  0  0  0  0  0  0
   -3.8976   -2.7271   -1.9460 C   0  0  0  0  0  0  0  0  0  0  0  0
   -4.9667   -3.5108   -2.2290 F   0  0  0  0  0  0  0  0  0  0  0  0
   -4.1230   -1.3982   -1.6046 C   0  0  0  0  0  0  0  0  0  0  0  0
   -3.0033   -0.6175   -1.3104 C   0  0  0  0  0  0  0  0  0  0  0  0
   -3.2375    1.0638   -0.8730 Cl  0  0  0  0  0  0  0  0  0  0  0  0
   -1.7093   -1.1372   -1.3548 C   0  0  0  0  0  0  0  0  0  0  0  0
    2.5096   -0.9918    0.0341 C   0  0  1  0  0  0  0  0  0  0  0  0
    2.0251   -1.4661    1.2786 O   0  0  0  0  0  0  0  0  0  0  0  0
    4.0312   -1.0867   -0.1221 C   0  0  0  0  0  0  0  0  0  0  0  0
    4.3895    0.1318   -0.9900 C   0  0  0  0  0  0  0  0  0  0  0  0
    3.3158    1.1057   -0.6983 N   0  0  0  0  0  0  0  0  0  0  0  0
    3.3841    2.4447   -1.1274 C   0  0  0  0  0  0  0  0  0  0  0  0
    2.4492    3.4159   -0.7341 C   0  0  0  0  0  0  0  0  0  0  0  0
    2.6054    4.7193   -1.2021 C   0  0  0  0  0  0  0  0  0  0  0  0
    3.6832    5.0083   -2.0380 C   0  0  0  0  0  0  0  0  0  0  0  0
    3.9201    6.4054   -2.5768 C   0  0  0  0  0  0  0  0  0  0  0  0
    2.9767    7.2742   -2.1306 F   0  0  0  0  0  0  0  0  0  0  0  0
    5.1233    6.8902   -2.1945 F   0  0  0  0  0  0  0  0  0  0  0  0
    3.8850    6.4339   -3.9276 F   0  0  0  0  0  0  0  0  0  0  0  0
    4.5766    4.0946   -2.4263 N   0  0  0  0  0  0  0  0  0  0  0  0
    4.4287    2.8474   -1.9854 C   0  0  0  0  0  0  0  0  0  0  0  0
    2.2507    0.5199   -0.0749 C   0  0  0  0  0  0  0  0  0  0  0  0
    1.2346    1.0409    0.3785 O   0  0  0  0  0  0  0  0  0  0  0  0
    0.6325   -2.6379    0.1647 H   0  0  0  0  0  0  0  0  0  0  0  0
   -0.1630   -4.1541   -1.6843 H   0  0  0  0  0  0  0  0  0  0  0  0
    0.3046   -2.8558   -2.7874 H   0  0  0  0  0  0  0  0  0  0  0  0
   -2.5137   -4.3341   -2.2666 H   0  0  0  0  0  0  0  0  0  0  0  0
   -5.1305   -0.9989   -1.5671 H   0  0  0  0  0  0  0  0  0  0  0  0
   -0.8652   -0.4987   -1.1172 H   0  0  0  0  0  0  0  0  0  0  0  0
    1.3953   -0.7901    1.5998 H   0  0  0  0  0  0  0  0  0  0  0  0
    4.4747   -0.9993    0.8728 H   0  0  0  0  0  0  0  0  0  0  0  0
    4.3611   -2.0199   -0.5802 H   0  0  0  0  0  0  0  0  0  0  0  0
    4.3825   -0.1187   -2.0527 H   0  0  0  0  0  0  0  0  0  0  0  0
    5.3571    0.5600   -0.7166 H   0  0  0  0  0  0  0  0  0  0  0  0
    1.6253    3.1528   -0.0849 H   0  0  0  0  0  0  0  0  0  0  0  0
    1.9015    5.4930   -0.9168 H   0  0  0  0  0  0  0  0  0  0  0  0
    5.1674    2.1335   -2.3377 H   0  0  0  0  0  0  0  0  0  0  0  0
  1  2  2  0
  2  3  1  0
  2 13  1  0
  3  4  1  0
  3 30  1  0
  4  5  1  0
  4 31  1  0
  4 32  1  0
  5  6  2  0
  5 12  1  0
  6  7  1  0
  6 33  1  0
  7  8  1  0
  7  9  2  0
  9 10  1  0
  9 34  1  0
 10 11  1  0
 10 12  2  0
 12 35  1  0
 13 14  1  1
 13 15  1  0
 13 28  1  0
 14 36  1  0
 15 16  1  0
 15 37  1  0
 15 38  1  0
 16 17  1  0
 16 39  1  0
 16 40  1  0
 17 18  1  0
 17 28  1  0
 18 19  2  0
 18 27  1  0
 19 20  1  0
 19 41  1  0
 20 21  2  0
 20 42  1  0
 21 22  1  0
 21 26  1  0
 22 23  1  0
 22 24  1  0
 22 25  1  0
 26 27  2  0
 27 43  1  0
 28 29  2  0
M  END
>  <group_name>  (1) 
MRK

>  <molecule_index>  (1) 
00538

>  <conformer_index>  (1) 
03

>  <method>  (1) 
b3lyp-d3bj

>  <basis>  (1) 
dzvp

>  <program>  (1) 
psi4

>  <initial_energy>  (1) 
-1219900.925225782 kilocalorie / mole

>  <final_energy>  (1) 
-1219976.1734112315 kilocalorie / mole

$$$$
