MRK-00538-07
     RDKit          3D

 43 45  0  0  0  0  0  0  0  0999 V2000
    1.8610   -1.4186   -1.0683 O   0  0  0  0  0  0  0  0  0  0  0  0
    1.0585   -1.1885   -0.1593 C   0  0  0  0  0  0  0  0  0  0  0  0
   -0.0620   -1.9053    0.0799 N   0  0  0  0  0  0  0  0  0  0  0  0
   -0.4873   -3.0047   -0.7811 C   0  0  0  0  0  0  0  0  0  0  0  0
   -1.5269   -2.5815   -1.8017 C   0  0  0  0  0  0  0  0  0  0  0  0
   -1.1928   -1.6315   -2.7782 C   0  0  0  0  0  0  0  0  0  0  0  0
   -2.1642   -1.2559   -3.6956 C   0  0  0  0  0  0  0  0  0  0  0  0
   -1.8507   -0.3434   -4.6455 F   0  0  0  0  0  0  0  0  0  0  0  0
   -3.4556   -1.7807   -3.6924 C   0  0  0  0  0  0  0  0  0  0  0  0
   -3.7600   -2.7236   -2.7128 C   0  0  0  0  0  0  0  0  0  0  0  0
   -5.3719   -3.4134   -2.6639 Cl  0  0  0  0  0  0  0  0  0  0  0  0
   -2.8131   -3.1297   -1.7682 C   0  0  0  0  0  0  0  0  0  0  0  0
    1.3106   -0.0356    0.8389 C   0  0  1  0  0  0  0  0  0  0  0  0
    0.2349    0.1341    1.7447 O   0  0  0  0  0  0  0  0  0  0  0  0
    2.6723   -0.2221    1.5211 C   0  0  0  0  0  0  0  0  0  0  0  0
    3.6611    0.4164    0.5319 C   0  0  0  0  0  0  0  0  0  0  0  0
    2.8580    1.4515   -0.1495 N   0  0  0  0  0  0  0  0  0  0  0  0
    3.4530    2.4369   -0.9596 C   0  0  0  0  0  0  0  0  0  0  0  0
    4.7997    2.3196   -1.3288 C   0  0  0  0  0  0  0  0  0  0  0  0
    5.3815    3.3161   -2.1112 C   0  0  0  0  0  0  0  0  0  0  0  0
    4.5906    4.3957   -2.4957 C   0  0  0  0  0  0  0  0  0  0  0  0
    5.1512    5.5309   -3.3301 C   0  0  0  0  0  0  0  0  0  0  0  0
    5.1141    6.7065   -2.6616 F   0  0  0  0  0  0  0  0  0  0  0  0
    6.4485    5.3027   -3.6667 F   0  0  0  0  0  0  0  0  0  0  0  0
    4.4626    5.6986   -4.4792 F   0  0  0  0  0  0  0  0  0  0  0  0
    3.3034    4.5217   -2.1586 N   0  0  0  0  0  0  0  0  0  0  0  0
    2.7414    3.5726   -1.4126 C   0  0  0  0  0  0  0  0  0  0  0  0
    1.5151    1.2589    0.0346 C   0  0  0  0  0  0  0  0  0  0  0  0
    0.5778    1.9707   -0.3084 O   0  0  0  0  0  0  0  0  0  0  0  0
   -0.6656   -1.5718    0.8235 H   0  0  0  0  0  0  0  0  0  0  0  0
   -0.8791   -3.8083   -0.1517 H   0  0  0  0  0  0  0  0  0  0  0  0
    0.4088   -3.3731   -1.2856 H   0  0  0  0  0  0  0  0  0  0  0  0
   -0.1991   -1.1970   -2.8267 H   0  0  0  0  0  0  0  0  0  0  0  0
   -4.1836   -1.4593   -4.4291 H   0  0  0  0  0  0  0  0  0  0  0  0
   -3.0822   -3.8662   -1.0172 H   0  0  0  0  0  0  0  0  0  0  0  0
   -0.3034    0.8685    1.3861 H   0  0  0  0  0  0  0  0  0  0  0  0
    2.6518    0.3326    2.4627 H   0  0  0  0  0  0  0  0  0  0  0  0
    2.9160   -1.2655    1.7269 H   0  0  0  0  0  0  0  0  0  0  0  0
    4.5075    0.8855    1.0405 H   0  0  0  0  0  0  0  0  0  0  0  0
    4.0245   -0.3135   -0.1953 H   0  0  0  0  0  0  0  0  0  0  0  0
    5.3903    1.4619   -1.0281 H   0  0  0  0  0  0  0  0  0  0  0  0
    6.4202    3.2488   -2.4144 H   0  0  0  0  0  0  0  0  0  0  0  0
    1.6959    3.7002   -1.1611 H   0  0  0  0  0  0  0  0  0  0  0  0
  1  2  2  0
  2  3  1  0
  2 13  1  0
  3  4  1  0
  3 30  1  0
  4  5  1  0
  4 31  1  0
  4 32  1  0
  5  6  2  0
  5 12  1  0
  6  7  1  0
  6 33  1  0
  7  8  1  0
  7  9  2  0
  9 10  1  0
  9 34  1  0
 10 11  1  0
 10 12  2  0
 12 35  1  0
 13 14  1  1
 13 15  1  0
 13 28  1  0
 14 36  1  0
 15 16  1  0
 15 37  1  0
 15 38  1  0
 16 17  1  0
 16 39  1  0
 16 40  1  0
 17 18  1  0
 17 28  1  0
 18 19  2  0
 18 27  1  0
 19 20  1  0
 19 41  1  0
 20 21  2  0
 20 42  1  0
 21 22  1  0
 21 26  1  0
 22 23  1  0
 22 24  1  0
 22 25  1  0
 26 27  2  0
 27 43  1  0
 28 29  2  0
M  END
>  <group_name>  (1) 
MRK

>  <molecule_index>  (1) 
00538

>  <conformer_index>  (1) 
07

>  <method>  (1) 
b3lyp-d3bj

>  <basis>  (1) 
dzvp

>  <program>  (1) 
psi4

>  <initial_energy>  (1) 
-1219930.871057588 kilocalorie / mole

>  <final_energy>  (1) 
-1219975.1886974112 kilocalorie / mole

$$$$
