MRK-00792-01
     RDKit          3D

 54 56  0  0  0  0  0  0  0  0999 V2000
   -5.2040   -1.8693   -2.5588 O   0  0  0  0  0  0  0  0  0  0  0  0
   -4.4996   -2.2583   -1.6339 C   0  0  0  0  0  0  0  0  0  0  0  0
   -4.1263   -3.5663   -1.4686 N   0  0  0  0  0  0  0  0  0  0  0  0
   -4.0971   -4.4146   -2.6499 C   0  0  0  0  0  0  0  0  0  0  0  0
   -2.9500   -4.0486   -3.5892 C   0  0  0  0  0  0  0  0  0  0  0  0
   -2.6679   -4.8384   -4.7156 C   0  0  0  0  0  0  0  0  0  0  0  0
   -1.6306   -4.4625   -5.5631 C   0  0  0  0  0  0  0  0  0  0  0  0
   -0.9010   -3.3011   -5.2752 C   0  0  0  0  0  0  0  0  0  0  0  0
   -1.2628   -2.5918   -4.1360 C   0  0  0  0  0  0  0  0  0  0  0  0
   -0.5752   -1.2976   -3.7581 C   0  0  0  0  0  0  0  0  0  0  0  0
   -1.4303   -0.2366   -3.8612 F   0  0  0  0  0  0  0  0  0  0  0  0
    0.4909   -1.0290   -4.5257 F   0  0  0  0  0  0  0  0  0  0  0  0
   -0.1560   -1.3024   -2.4588 F   0  0  0  0  0  0  0  0  0  0  0  0
   -2.2504   -2.9475   -3.3052 N   0  0  0  0  0  0  0  0  0  0  0  0
   -4.0083   -1.2620   -0.5803 C   0  0  1  0  0  0  0  0  0  0  0  0
   -2.6205   -1.5119    0.0347 C   0  0  0  0  0  0  0  0  0  0  0  0
   -2.2195   -0.1467    0.5873 C   0  0  0  0  0  0  0  0  0  0  0  0
   -2.8633    0.8703   -0.3640 N   0  0  1  0  0  0  0  0  0  0  0  0
   -1.8629    1.7001   -1.1643 C   0  0  0  0  0  0  0  0  0  0  0  0
   -1.1048    2.6365   -0.2654 C   0  0  0  0  0  0  0  0  0  0  0  0
   -1.7324    3.7962    0.2221 C   0  0  0  0  0  0  0  0  0  0  0  0
   -1.0393    4.6380    1.0903 C   0  0  0  0  0  0  0  0  0  0  0  0
    0.2725    4.3453    1.4813 C   0  0  0  0  0  0  0  0  0  0  0  0
    0.8971    3.1931    0.9861 C   0  0  0  0  0  0  0  0  0  0  0  0
    2.1668    2.8047    1.2903 O   0  0  0  0  0  0  0  0  0  0  0  0
    2.9348    3.6258    2.1558 C   0  0  0  0  0  0  0  0  0  0  0  0
    4.2820    2.9409    2.3423 C   0  0  0  0  0  0  0  0  0  0  0  0
    5.0432    3.6950    3.1656 F   0  0  0  0  0  0  0  0  0  0  0  0
    4.1455    1.7190    2.8970 F   0  0  0  0  0  0  0  0  0  0  0  0
    4.9369    2.7970    1.1748 F   0  0  0  0  0  0  0  0  0  0  0  0
    0.2050    2.3404    0.1107 C   0  0  0  0  0  0  0  0  0  0  0  0
   -3.8384    0.1036   -1.2544 C   0  0  0  0  0  0  0  0  0  0  0  0
   -3.3833   -3.7395   -0.8037 H   0  0  0  0  0  0  0  0  0  0  0  0
   -4.0163   -5.4595   -2.3385 H   0  0  0  0  0  0  0  0  0  0  0  0
   -5.0461   -4.3000   -3.1788 H   0  0  0  0  0  0  0  0  0  0  0  0
   -3.2561   -5.7294   -4.9185 H   0  0  0  0  0  0  0  0  0  0  0  0
   -1.3899   -5.0576   -6.4390 H   0  0  0  0  0  0  0  0  0  0  0  0
   -0.0896   -2.9670   -5.9119 H   0  0  0  0  0  0  0  0  0  0  0  0
   -4.7656   -1.2021    0.2107 H   0  0  0  0  0  0  0  0  0  0  0  0
   -1.9211   -1.8358   -0.7401 H   0  0  0  0  0  0  0  0  0  0  0  0
   -2.6272   -2.2548    0.8362 H   0  0  0  0  0  0  0  0  0  0  0  0
   -1.1472    0.0336    0.6238 H   0  0  0  0  0  0  0  0  0  0  0  0
   -2.6358    0.0342    1.5794 H   0  0  0  0  0  0  0  0  0  0  0  0
   -2.4539    2.2377   -1.9096 H   0  0  0  0  0  0  0  0  0  0  0  0
   -1.2193    0.9881   -1.6793 H   0  0  0  0  0  0  0  0  0  0  0  0
   -2.7380    4.0605   -0.0999 H   0  0  0  0  0  0  0  0  0  0  0  0
   -1.5130    5.5417    1.4620 H   0  0  0  0  0  0  0  0  0  0  0  0
    0.7896    5.0224    2.1515 H   0  0  0  0  0  0  0  0  0  0  0  0
    2.4658    3.7261    3.1405 H   0  0  0  0  0  0  0  0  0  0  0  0
    3.1085    4.6166    1.7228 H   0  0  0  0  0  0  0  0  0  0  0  0
    0.7242    1.4658   -0.2727 H   0  0  0  0  0  0  0  0  0  0  0  0
   -4.7560    0.6792   -1.3640 H   0  0  0  0  0  0  0  0  0  0  0  0
   -3.3704   -0.0095   -2.2313 H   0  0  0  0  0  0  0  0  0  0  0  0
   -3.3893    1.5359    0.2061 H   0  0  0  0  0  0  0  0  0  0  0  0
  1  2  2  0
  2  3  1  0
  2 15  1  0
  3  4  1  0
  3 33  1  0
  4  5  1  0
  4 34  1  0
  4 35  1  0
  5  6  2  0
  5 14  1  0
  6  7  1  0
  6 36  1  0
  7  8  2  0
  7 37  1  0
  8  9  1  0
  8 38  1  0
  9 10  1  0
  9 14  2  0
 10 11  1  0
 10 12  1  0
 10 13  1  0
 15 16  1  0
 15 32  1  0
 15 39  1  1
 16 17  1  0
 16 40  1  0
 16 41  1  0
 17 18  1  0
 17 42  1  0
 17 43  1  0
 18 19  1  0
 18 32  1  0
 18 54  1  1
 19 20  1  0
 19 44  1  0
 19 45  1  0
 20 21  2  0
 20 31  1  0
 21 22  1  0
 21 46  1  0
 22 23  2  0
 22 47  1  0
 23 24  1  0
 23 48  1  0
 24 25  1  0
 24 31  2  0
 25 26  1  0
 26 27  1  0
 26 49  1  0
 26 50  1  0
 27 28  1  0
 27 29  1  0
 27 30  1  0
 31 51  1  0
 32 52  1  0
 32 53  1  0
M  CHG  1  18   1
M  END
>  <group_name>  (1) 
MRK

>  <molecule_index>  (1) 
00792

>  <conformer_index>  (1) 
01

>  <method>  (1) 
b3lyp-d3bj

>  <basis>  (1) 
dzvp

>  <program>  (1) 
psi4

>  <initial_energy>  (1) 
-1083888.0818509392 kilocalorie / mole

>  <final_energy>  (1) 
-1083969.3446794548 kilocalorie / mole

$$$$
