MRK-00792-09
     RDKit          3D

 54 56  0  0  0  0  0  0  0  0999 V2000
   -1.2332   -2.8074   -1.2786 O   0  0  0  0  0  0  0  0  0  0  0  0
   -2.4439   -2.9335   -1.0724 C   0  0  0  0  0  0  0  0  0  0  0  0
   -3.2511   -3.7121   -1.8400 N   0  0  0  0  0  0  0  0  0  0  0  0
   -2.8085   -4.1224   -3.1621 C   0  0  0  0  0  0  0  0  0  0  0  0
   -2.9718   -3.0158   -4.1996 C   0  0  0  0  0  0  0  0  0  0  0  0
   -2.8051   -3.2977   -5.5650 C   0  0  0  0  0  0  0  0  0  0  0  0
   -2.9568   -2.2701   -6.4907 C   0  0  0  0  0  0  0  0  0  0  0  0
   -3.2741   -0.9844   -6.0339 C   0  0  0  0  0  0  0  0  0  0  0  0
   -3.4156   -0.8133   -4.6617 C   0  0  0  0  0  0  0  0  0  0  0  0
   -3.7387    0.5410   -4.0640 C   0  0  0  0  0  0  0  0  0  0  0  0
   -4.0239    1.4630   -4.9963 F   0  0  0  0  0  0  0  0  0  0  0  0
   -4.7832    0.4758   -3.2042 F   0  0  0  0  0  0  0  0  0  0  0  0
   -2.6791    1.0156   -3.3356 F   0  0  0  0  0  0  0  0  0  0  0  0
   -3.2687   -1.7913   -3.7576 N   0  0  0  0  0  0  0  0  0  0  0  0
   -3.1226   -2.1726    0.0663 C   0  0  1  0  0  0  0  0  0  0  0  0
   -2.3397   -2.2713    1.3900 C   0  0  0  0  0  0  0  0  0  0  0  0
   -1.1896   -1.2779    1.2297 C   0  0  0  0  0  0  0  0  0  0  0  0
   -1.7430   -0.1746    0.3220 N   0  0  1  0  0  0  0  0  0  0  0  0
   -0.7536    0.2976   -0.7490 C   0  0  0  0  0  0  0  0  0  0  0  0
    0.4908    0.8506   -0.1150 C   0  0  0  0  0  0  0  0  0  0  0  0
    1.6524    0.0793   -0.0521 C   0  0  0  0  0  0  0  0  0  0  0  0
    2.7927    0.5968    0.5792 C   0  0  0  0  0  0  0  0  0  0  0  0
    2.7740    1.8664    1.1430 C   0  0  0  0  0  0  0  0  0  0  0  0
    1.6086    2.6492    1.0698 C   0  0  0  0  0  0  0  0  0  0  0  0
    1.6998    3.8883    1.6329 O   0  0  0  0  0  0  0  0  0  0  0  0
    0.5832    4.7519    1.5481 C   0  0  0  0  0  0  0  0  0  0  0  0
    0.9612    6.0543    2.2423 C   0  0  0  0  0  0  0  0  0  0  0  0
   -0.0979    6.8963    2.1825 F   0  0  0  0  0  0  0  0  0  0  0  0
    1.2672    5.8572    3.5389 F   0  0  0  0  0  0  0  0  0  0  0  0
    2.0090    6.6527    1.6485 F   0  0  0  0  0  0  0  0  0  0  0  0
    0.4650    2.1442    0.4406 C   0  0  0  0  0  0  0  0  0  0  0  0
   -3.0729   -0.6691   -0.2503 C   0  0  0  0  0  0  0  0  0  0  0  0
   -4.2503   -3.6069   -1.7128 H   0  0  0  0  0  0  0  0  0  0  0  0
   -1.7553   -4.4041   -3.0913 H   0  0  0  0  0  0  0  0  0  0  0  0
   -3.3686   -5.0102   -3.4669 H   0  0  0  0  0  0  0  0  0  0  0  0
   -2.5651   -4.3068   -5.8892 H   0  0  0  0  0  0  0  0  0  0  0  0
   -2.8366   -2.4611   -7.5530 H   0  0  0  0  0  0  0  0  0  0  0  0
   -3.4093   -0.1551   -6.7191 H   0  0  0  0  0  0  0  0  0  0  0  0
   -4.1601   -2.4903    0.1935 H   0  0  0  0  0  0  0  0  0  0  0  0
   -2.9924   -1.9895    2.2219 H   0  0  0  0  0  0  0  0  0  0  0  0
   -1.9602   -3.2764    1.5824 H   0  0  0  0  0  0  0  0  0  0  0  0
   -0.8430   -0.8242    2.1577 H   0  0  0  0  0  0  0  0  0  0  0  0
   -0.3522   -1.7271    0.7057 H   0  0  0  0  0  0  0  0  0  0  0  0
   -0.5630   -0.5752   -1.3716 H   0  0  0  0  0  0  0  0  0  0  0  0
   -1.2903    1.0479   -1.3320 H   0  0  0  0  0  0  0  0  0  0  0  0
    1.6776   -0.9092   -0.5025 H   0  0  0  0  0  0  0  0  0  0  0  0
    3.7020    0.0049    0.6252 H   0  0  0  0  0  0  0  0  0  0  0  0
    3.6495    2.2846    1.6304 H   0  0  0  0  0  0  0  0  0  0  0  0
    0.3263    4.9825    0.5080 H   0  0  0  0  0  0  0  0  0  0  0  0
   -0.2910    4.3385    2.0646 H   0  0  0  0  0  0  0  0  0  0  0  0
   -0.4293    2.7534    0.3399 H   0  0  0  0  0  0  0  0  0  0  0  0
   -3.8711   -0.1322    0.2647 H   0  0  0  0  0  0  0  0  0  0  0  0
   -3.1118   -0.4431   -1.3132 H   0  0  0  0  0  0  0  0  0  0  0  0
   -1.9325    0.6406    0.9080 H   0  0  0  0  0  0  0  0  0  0  0  0
  1  2  2  0
  2  3  1  0
  2 15  1  0
  3  4  1  0
  3 33  1  0
  4  5  1  0
  4 34  1  0
  4 35  1  0
  5  6  2  0
  5 14  1  0
  6  7  1  0
  6 36  1  0
  7  8  2  0
  7 37  1  0
  8  9  1  0
  8 38  1  0
  9 10  1  0
  9 14  2  0
 10 11  1  0
 10 12  1  0
 10 13  1  0
 15 16  1  0
 15 32  1  0
 15 39  1  1
 16 17  1  0
 16 40  1  0
 16 41  1  0
 17 18  1  0
 17 42  1  0
 17 43  1  0
 18 19  1  0
 18 32  1  0
 18 54  1  1
 19 20  1  0
 19 44  1  0
 19 45  1  0
 20 21  2  0
 20 31  1  0
 21 22  1  0
 21 46  1  0
 22 23  2  0
 22 47  1  0
 23 24  1  0
 23 48  1  0
 24 25  1  0
 24 31  2  0
 25 26  1  0
 26 27  1  0
 26 49  1  0
 26 50  1  0
 27 28  1  0
 27 29  1  0
 27 30  1  0
 31 51  1  0
 32 52  1  0
 32 53  1  0
M  CHG  1  18   1
M  END
>  <group_name>  (1) 
MRK

>  <molecule_index>  (1) 
00792

>  <conformer_index>  (1) 
09

>  <method>  (1) 
b3lyp-d3bj

>  <basis>  (1) 
dzvp

>  <program>  (1) 
psi4

>  <initial_energy>  (1) 
-1083956.0661443328 kilocalorie / mole

>  <final_energy>  (1) 
-1083973.0712232792 kilocalorie / mole

$$$$
