MRK-01088-06
     RDKit          3D

 48 50  0  0  0  0  0  0  0  0999 V2000
    1.1806   -2.5343    1.4798 C   0  0  0  0  0  0  0  0  0  0  0  0
    0.2823   -1.6482    0.6049 C   0  0  1  0  0  0  0  0  0  0  0  0
   -1.0118   -2.1977    0.6614 O   0  0  0  0  0  0  0  0  0  0  0  0
    0.1386   -0.1241    0.9799 C   0  0  0  0  0  0  0  0  0  0  0  0
   -1.0259    0.3001    1.0081 O   0  0  0  0  0  0  0  0  0  0  0  0
    1.1970    0.6972    1.1886 N   0  0  0  0  0  0  0  0  0  0  0  0
    2.5897    0.3004    1.4567 C   0  0  0  0  0  0  0  0  0  0  0  0
    3.2913    1.3527    2.3294 C   0  0  0  0  0  0  0  0  0  0  0  0
    2.3727    1.9060    3.4444 C   0  0  0  0  0  0  0  0  0  0  0  0
    1.9469    0.8398    4.4216 C   0  0  0  0  0  0  0  0  0  0  0  0
    0.8630   -0.0234    4.3876 C   0  0  0  0  0  0  0  0  0  0  0  0
    0.9375   -0.7787    5.5835 C   0  0  0  0  0  0  0  0  0  0  0  0
    1.9771   -0.4226    6.3281 N   0  0  0  0  0  0  0  0  0  0  0  0
    2.6045    0.5599    5.6087 N   0  0  0  0  0  0  0  0  0  0  0  0
    3.6579    1.2586    6.2451 C   0  0  0  0  0  0  0  0  0  0  0  0
    4.8100    1.6692    5.5748 C   0  0  0  0  0  0  0  0  0  0  0  0
    5.7894    2.3672    6.2849 C   0  0  0  0  0  0  0  0  0  0  0  0
    5.5749    2.6041    7.6403 C   0  0  0  0  0  0  0  0  0  0  0  0
    6.5869    3.3622    8.4796 C   0  0  0  0  0  0  0  0  0  0  0  0
    6.0526    4.4878    9.0027 F   0  0  0  0  0  0  0  0  0  0  0  0
    7.6630    3.7338    7.7378 F   0  0  0  0  0  0  0  0  0  0  0  0
    7.0450    2.6148    9.5057 F   0  0  0  0  0  0  0  0  0  0  0  0
    4.4863    2.1940    8.3020 N   0  0  0  0  0  0  0  0  0  0  0  0
    3.5496    1.5391    7.6217 C   0  0  0  0  0  0  0  0  0  0  0  0
    1.1513    2.6073    2.7756 C   0  0  0  0  0  0  0  0  0  0  0  0
    0.9381    2.1384    1.3280 C   0  0  0  0  0  0  0  0  0  0  0  0
    0.7447   -1.7276   -0.8743 C   0  0  0  0  0  0  0  0  0  0  0  0
   -0.0732   -1.0305   -1.6895 F   0  0  0  0  0  0  0  0  0  0  0  0
    2.0018   -1.2241   -1.0439 F   0  0  0  0  0  0  0  0  0  0  0  0
    0.7720   -3.0026   -1.3076 F   0  0  0  0  0  0  0  0  0  0  0  0
    1.0569   -2.2798    2.5344 H   0  0  0  0  0  0  0  0  0  0  0  0
    0.8475   -3.5637    1.3349 H   0  0  0  0  0  0  0  0  0  0  0  0
    2.2355   -2.4776    1.2114 H   0  0  0  0  0  0  0  0  0  0  0  0
   -1.6225   -1.4277    0.6510 H   0  0  0  0  0  0  0  0  0  0  0  0
    2.5905   -0.6419    1.9950 H   0  0  0  0  0  0  0  0  0  0  0  0
    3.1403    0.1618    0.5216 H   0  0  0  0  0  0  0  0  0  0  0  0
    4.1867    0.8808    2.7427 H   0  0  0  0  0  0  0  0  0  0  0  0
    3.6370    2.1933    1.7189 H   0  0  0  0  0  0  0  0  0  0  0  0
    2.9373    2.6604    3.9990 H   0  0  0  0  0  0  0  0  0  0  0  0
    0.0951   -0.0693    3.6296 H   0  0  0  0  0  0  0  0  0  0  0  0
    0.2785   -1.5657    5.9291 H   0  0  0  0  0  0  0  0  0  0  0  0
    4.9633    1.4325    4.5296 H   0  0  0  0  0  0  0  0  0  0  0  0
    6.6987    2.7006    5.7981 H   0  0  0  0  0  0  0  0  0  0  0  0
    2.6723    1.2055    8.1681 H   0  0  0  0  0  0  0  0  0  0  0  0
    1.3113    3.6902    2.7653 H   0  0  0  0  0  0  0  0  0  0  0  0
    0.2485    2.4247    3.3610 H   0  0  0  0  0  0  0  0  0  0  0  0
    1.6190    2.6602    0.6468 H   0  0  0  0  0  0  0  0  0  0  0  0
   -0.0797    2.3363    1.0005 H   0  0  0  0  0  0  0  0  0  0  0  0
  1  2  1  0
  1 31  1  0
  1 32  1  0
  1 33  1  0
  2  3  1  6
  2  4  1  0
  2 27  1  0
  3 34  1  0
  4  5  2  0
  4  6  1  0
  6  7  1  0
  6 26  1  0
  7  8  1  0
  7 35  1  0
  7 36  1  0
  8  9  1  0
  8 37  1  0
  8 38  1  0
  9 10  1  0
  9 25  1  0
  9 39  1  0
 10 11  2  0
 10 14  1  0
 11 12  1  0
 11 40  1  0
 12 13  2  0
 12 41  1  0
 13 14  1  0
 14 15  1  0
 15 16  2  0
 15 24  1  0
 16 17  1  0
 16 42  1  0
 17 18  2  0
 17 43  1  0
 18 19  1  0
 18 23  1  0
 19 20  1  0
 19 21  1  0
 19 22  1  0
 23 24  2  0
 24 44  1  0
 25 26  1  0
 25 45  1  0
 25 46  1  0
 26 47  1  0
 26 48  1  0
 27 28  1  0
 27 29  1  0
 27 30  1  0
M  END
>  <group_name>  (1) 
MRK

>  <molecule_index>  (1) 
01088

>  <conformer_index>  (1) 
06

>  <method>  (1) 
b3lyp-d3bj

>  <basis>  (1) 
dzvp

>  <program>  (1) 
psi4

>  <initial_energy>  (1) 
-1045115.1854964627 kilocalorie / mole

>  <final_energy>  (1) 
-1045190.9593988031 kilocalorie / mole

$$$$
