MRK-01088-03
     RDKit          3D

 48 50  0  0  0  0  0  0  0  0999 V2000
    0.4046    0.1513   -1.4363 C   0  0  0  0  0  0  0  0  0  0  0  0
   -0.0552   -0.4794   -0.1125 C   0  0  1  0  0  0  0  0  0  0  0  0
    0.6435   -1.6858    0.1900 O   0  0  0  0  0  0  0  0  0  0  0  0
    0.1279    0.5373    1.0449 C   0  0  0  0  0  0  0  0  0  0  0  0
   -0.8554    1.1743    1.4206 O   0  0  0  0  0  0  0  0  0  0  0  0
    1.3786    0.7503    1.5531 N   0  0  0  0  0  0  0  0  0  0  0  0
    1.5101    1.6579    2.6997 C   0  0  0  0  0  0  0  0  0  0  0  0
    1.9198    0.8769    3.9522 C   0  0  0  0  0  0  0  0  0  0  0  0
    3.2177    0.0725    3.7086 C   0  0  0  0  0  0  0  0  0  0  0  0
    3.5939   -0.7425    4.9163 C   0  0  0  0  0  0  0  0  0  0  0  0
    3.4943   -2.1064    5.1365 C   0  0  0  0  0  0  0  0  0  0  0  0
    3.8290   -2.2977    6.5010 C   0  0  0  0  0  0  0  0  0  0  0  0
    4.1167   -1.1506    7.1051 N   0  0  0  0  0  0  0  0  0  0  0  0
    3.9851   -0.2022    6.1259 N   0  0  0  0  0  0  0  0  0  0  0  0
    4.1952    1.1507    6.4782 C   0  0  0  0  0  0  0  0  0  0  0  0
    3.6466    1.6568    7.6590 C   0  0  0  0  0  0  0  0  0  0  0  0
    3.8633    2.9975    7.9734 C   0  0  0  0  0  0  0  0  0  0  0  0
    4.6164    3.7686    7.0864 C   0  0  0  0  0  0  0  0  0  0  0  0
    4.8782    5.2411    7.3456 C   0  0  0  0  0  0  0  0  0  0  0  0
    4.4113    6.0122    6.3383 F   0  0  0  0  0  0  0  0  0  0  0  0
    6.1980    5.4980    7.4740 F   0  0  0  0  0  0  0  0  0  0  0  0
    4.2726    5.6578    8.4868 F   0  0  0  0  0  0  0  0  0  0  0  0
    5.1718    3.2876    5.9700 N   0  0  0  0  0  0  0  0  0  0  0  0
    4.9773    2.0010    5.6824 C   0  0  0  0  0  0  0  0  0  0  0  0
    3.0617   -0.8047    2.4547 C   0  0  0  0  0  0  0  0  0  0  0  0
    2.6235    0.0377    1.2520 C   0  0  0  0  0  0  0  0  0  0  0  0
   -1.5581   -0.8583   -0.2240 C   0  0  0  0  0  0  0  0  0  0  0  0
   -2.0712   -1.3177    0.9256 F   0  0  0  0  0  0  0  0  0  0  0  0
   -2.3347    0.1302   -0.6904 F   0  0  0  0  0  0  0  0  0  0  0  0
   -1.6556   -1.8896   -1.1328 F   0  0  0  0  0  0  0  0  0  0  0  0
    0.2192   -0.5309   -2.2716 H   0  0  0  0  0  0  0  0  0  0  0  0
   -0.1306    1.0847   -1.6237 H   0  0  0  0  0  0  0  0  0  0  0  0
    1.4740    0.3644   -1.3908 H   0  0  0  0  0  0  0  0  0  0  0  0
    0.4471   -2.3309   -0.5109 H   0  0  0  0  0  0  0  0  0  0  0  0
    0.5587    2.1657    2.8453 H   0  0  0  0  0  0  0  0  0  0  0  0
    2.2708    2.4117    2.4565 H   0  0  0  0  0  0  0  0  0  0  0  0
    2.0520    1.5770    4.7833 H   0  0  0  0  0  0  0  0  0  0  0  0
    1.1142    0.1878    4.2292 H   0  0  0  0  0  0  0  0  0  0  0  0
    4.0135    0.7950    3.4920 H   0  0  0  0  0  0  0  0  0  0  0  0
    3.2021   -2.8584    4.4176 H   0  0  0  0  0  0  0  0  0  0  0  0
    3.8775   -3.2221    7.0636 H   0  0  0  0  0  0  0  0  0  0  0  0
    3.0686    1.0048    8.3051 H   0  0  0  0  0  0  0  0  0  0  0  0
    3.4523    3.4336    8.8768 H   0  0  0  0  0  0  0  0  0  0  0  0
    5.4774    1.6210    4.7957 H   0  0  0  0  0  0  0  0  0  0  0  0
    2.3054   -1.5784    2.6204 H   0  0  0  0  0  0  0  0  0  0  0  0
    4.0083   -1.3059    2.2245 H   0  0  0  0  0  0  0  0  0  0  0  0
    2.5029   -0.5971    0.3818 H   0  0  0  0  0  0  0  0  0  0  0  0
    3.3888    0.7925    1.0234 H   0  0  0  0  0  0  0  0  0  0  0  0
  1  2  1  0
  1 31  1  0
  1 32  1  0
  1 33  1  0
  2  3  1  1
  2  4  1  0
  2 27  1  0
  3 34  1  0
  4  5  2  0
  4  6  1  0
  6  7  1  0
  6 26  1  0
  7  8  1  0
  7 35  1  0
  7 36  1  0
  8  9  1  0
  8 37  1  0
  8 38  1  0
  9 10  1  0
  9 25  1  0
  9 39  1  0
 10 11  2  0
 10 14  1  0
 11 12  1  0
 11 40  1  0
 12 13  2  0
 12 41  1  0
 13 14  1  0
 14 15  1  0
 15 16  2  0
 15 24  1  0
 16 17  1  0
 16 42  1  0
 17 18  2  0
 17 43  1  0
 18 19  1  0
 18 23  1  0
 19 20  1  0
 19 21  1  0
 19 22  1  0
 23 24  2  0
 24 44  1  0
 25 26  1  0
 25 45  1  0
 25 46  1  0
 26 47  1  0
 26 48  1  0
 27 28  1  0
 27 29  1  0
 27 30  1  0
M  END
>  <group_name>  (1) 
MRK

>  <molecule_index>  (1) 
01088

>  <conformer_index>  (1) 
03

>  <method>  (1) 
b3lyp-d3bj

>  <basis>  (1) 
dzvp

>  <program>  (1) 
psi4

>  <initial_energy>  (1) 
-1045138.100655418 kilocalorie / mole

>  <final_energy>  (1) 
-1045193.3256652168 kilocalorie / mole

$$$$
