RCH-01399-02
     RDKit          3D

 44 48  0  0  0  0  0  0  0  0999 V2000
   -1.9910   -0.3055    1.2581 C   0  0  0  0  0  0  0  0  0  0  0  0
   -1.4315   -1.0501    2.2991 C   0  0  0  0  0  0  0  0  0  0  0  0
   -0.2647    2.9058    1.8087 C   0  0  0  0  0  0  0  0  0  0  0  0
    1.0382    3.1744    2.2318 C   0  0  0  0  0  0  0  0  0  0  0  0
    0.7894   -0.7073    1.3460 C   0  0  0  0  0  0  0  0  0  0  0  0
    1.4479    1.6695   -2.6908 C   0  0  0  0  0  0  0  0  0  0  0  0
    0.3170    3.9154   -0.3130 C   0  0  0  0  0  0  0  0  0  0  0  0
    0.2284    0.0564    0.3141 C   0  0  0  0  0  0  0  0  0  0  0  0
    0.3863    1.1307   -1.9289 C   0  0  0  0  0  0  0  0  0  0  0  0
   -1.1766    0.2545    0.2730 C   0  0  0  0  0  0  0  0  0  0  0  0
   -0.0507   -1.2335    2.3193 C   0  0  0  0  0  0  0  0  0  0  0  0
   -0.6103    3.2598    0.5069 C   0  0  0  0  0  0  0  0  0  0  0  0
    0.9815    0.6691   -0.7611 C   0  0  0  0  0  0  0  0  0  0  0  0
    1.9065    3.7774    1.3215 C   0  0  0  0  0  0  0  0  0  0  0  0
   -0.8281   -0.8267   -3.9591 C   0  0  0  0  0  0  0  0  0  0  0  0
   -0.9189   -1.5697   -2.6443 C   0  0  0  0  0  0  0  0  0  0  0  0
   -1.1020    1.0288   -2.1000 C   0  0  1  0  0  0  0  0  0  0  0  0
   -1.5954   -0.2278   -2.8027 C   0  0  0  0  0  0  0  0  0  0  0  0
    3.3756    3.9516    1.6671 C   0  0  0  0  0  0  0  0  0  0  0  0
    1.5627    4.1688    0.0894 N   0  0  0  0  0  0  0  0  0  0  0  0
    2.6146    1.5639   -2.0421 N   0  0  0  0  0  0  0  0  0  0  0  0
    2.3137    0.9431   -0.8769 N   0  0  0  0  0  0  0  0  0  0  0  0
   -1.7495    1.0895   -0.7467 N   0  0  0  0  0  0  0  0  0  0  0  0
   -3.0841    2.4810    0.9343 O   0  0  0  0  0  0  0  0  0  0  0  0
   -2.4975    3.4589   -1.3567 O   0  0  0  0  0  0  0  0  0  0  0  0
    0.4974   -1.9645    3.3202 F   0  0  0  0  0  0  0  0  0  0  0  0
    4.1013    2.9247    1.1345 F   0  0  0  0  0  0  0  0  0  0  0  0
    3.5782    3.9150    3.0072 F   0  0  0  0  0  0  0  0  0  0  0  0
    3.8908    5.0958    1.2017 F   0  0  0  0  0  0  0  0  0  0  0  0
   -2.1571    2.6635   -0.1791 S   0  0  0  0  0  0  0  0  0  0  0  0
   -3.0603   -0.1337    1.2137 H   0  0  0  0  0  0  0  0  0  0  0  0
   -2.0469   -1.4922    3.0758 H   0  0  0  0  0  0  0  0  0  0  0  0
   -0.9853    2.4194    2.4576 H   0  0  0  0  0  0  0  0  0  0  0  0
    1.3705    2.9064    3.2284 H   0  0  0  0  0  0  0  0  0  0  0  0
    1.8558   -0.9061    1.3958 H   0  0  0  0  0  0  0  0  0  0  0  0
    1.4213    2.1354   -3.6680 H   0  0  0  0  0  0  0  0  0  0  0  0
    0.0447    4.2290   -1.3169 H   0  0  0  0  0  0  0  0  0  0  0  0
   -1.3998   -1.1910   -4.8071 H   0  0  0  0  0  0  0  0  0  0  0  0
    0.1339   -0.3921   -4.2135 H   0  0  0  0  0  0  0  0  0  0  0  0
   -1.5543   -2.4478   -2.5835 H   0  0  0  0  0  0  0  0  0  0  0  0
   -0.0165   -1.6220   -2.0444 H   0  0  0  0  0  0  0  0  0  0  0  0
   -1.4830    1.8904   -2.6505 H   0  0  0  0  0  0  0  0  0  0  0  0
   -2.6791   -0.2453   -2.8844 H   0  0  0  0  0  0  0  0  0  0  0  0
    3.0396    0.8616   -0.1762 H   0  0  0  0  0  0  0  0  0  0  0  0
  1  2  2  0
  1 10  1  0
  1 31  1  0
  2 11  1  0
  2 32  1  0
  3  4  2  0
  3 12  1  0
  3 33  1  0
  4 14  1  0
  4 34  1  0
  5  8  1  0
  5 11  2  0
  5 35  1  0
  6  9  1  0
  6 21  2  0
  6 36  1  0
  7 12  2  0
  7 20  1  0
  7 37  1  0
  8 10  2  0
  8 13  1  0
  9 13  2  0
  9 17  1  0
 10 23  1  0
 11 26  1  0
 12 30  1  0
 13 22  1  0
 14 19  1  0
 14 20  2  0
 15 16  1  0
 15 18  1  0
 15 38  1  0
 15 39  1  0
 16 18  1  0
 16 40  1  0
 16 41  1  0
 17 18  1  0
 17 23  1  0
 17 42  1  6
 18 43  1  0
 19 27  1  0
 19 28  1  0
 19 29  1  0
 21 22  1  0
 22 44  1  0
 23 30  1  0
 24 30  2  0
 25 30  2  0
M  END
>  <group_name>  (1) 
RCH

>  <molecule_index>  (1) 
01399

>  <conformer_index>  (1) 
02

>  <method>  (1) 
b3lyp-d3bj

>  <basis>  (1) 
dzvp

>  <program>  (1) 
psi4

>  <initial_energy>  (1) 
-1191963.7419675963 kilocalorie / mole

>  <final_energy>  (1) 
-1192042.0404637142 kilocalorie / mole

$$$$
