RCH-00786-04
     RDKit          3D

 43 45  0  0  0  0  0  0  0  0999 V2000
   -2.0471   -1.8447   -8.0013 C   0  0  0  0  0  0  0  0  0  0  0  0
   -2.0040   -1.5250   -6.6633 C   0  0  0  0  0  0  0  0  0  0  0  0
   -2.0519   -0.8293   -8.9899 C   0  0  0  0  0  0  0  0  0  0  0  0
   -1.8625    1.6125   -4.6002 C   0  0  0  0  0  0  0  0  0  0  0  0
   -1.9605   -0.1648   -6.2433 C   0  0  0  0  0  0  0  0  0  0  0  0
   -2.0077    0.4973   -8.6276 C   0  0  0  0  0  0  0  0  0  0  0  0
   -1.9166    0.2617   -4.8813 C   0  0  0  0  0  0  0  0  0  0  0  0
   -1.9598    0.8651   -7.2469 C   0  0  0  0  0  0  0  0  0  0  0  0
   -1.8653    2.5321   -5.6728 C   0  0  0  0  0  0  0  0  0  0  0  0
   -4.5835   -2.9132   -3.6014 C   0  0  0  0  0  0  0  0  0  0  0  0
   -5.0390   -3.1227   -2.1386 C   0  0  0  0  0  0  0  0  0  0  0  0
   -4.4399   -1.4215   -3.9289 C   0  0  0  0  0  0  0  0  0  0  0  0
   -4.5182   -2.0113   -1.2131 C   0  0  0  0  0  0  0  0  0  0  0  0
   -3.3418   -0.7582   -3.0803 C   0  0  2  0  0  0  0  0  0  0  0  0
   -1.9437   -0.7121   -3.7171 C   0  0  2  0  0  0  0  0  0  0  0  0
   -2.0085    1.5797   -9.6946 C   0  0  0  0  0  0  0  0  0  0  0  0
   -1.8540    4.0331   -5.3964 C   0  0  0  0  0  0  0  0  0  0  0  0
   -1.9175    2.1850   -6.9361 N   0  0  0  0  0  0  0  0  0  0  0  0
   -3.1986   -1.5028   -1.7463 N   0  0  0  0  0  0  0  0  0  0  0  0
   -1.0854   -0.3223   -2.6387 O   0  0  0  0  0  0  0  0  0  0  0  0
   -2.0565    1.0306  -10.9328 F   0  0  0  0  0  0  0  0  0  0  0  0
   -0.8954    2.3369   -9.6377 F   0  0  0  0  0  0  0  0  0  0  0  0
   -3.0800    2.3908   -9.5788 F   0  0  0  0  0  0  0  0  0  0  0  0
   -3.0858    4.5551   -5.5815 F   0  0  0  0  0  0  0  0  0  0  0  0
   -0.9956    4.6811   -6.1907 F   0  0  0  0  0  0  0  0  0  0  0  0
   -1.5013    4.2772   -4.1066 F   0  0  0  0  0  0  0  0  0  0  0  0
   -2.0724   -2.8853   -8.3106 H   0  0  0  0  0  0  0  0  0  0  0  0
   -1.9936   -2.3309   -5.9367 H   0  0  0  0  0  0  0  0  0  0  0  0
   -2.0862   -1.1016  -10.0389 H   0  0  0  0  0  0  0  0  0  0  0  0
   -1.8049    1.9708   -3.5785 H   0  0  0  0  0  0  0  0  0  0  0  0
   -5.3025   -3.3741   -4.2816 H   0  0  0  0  0  0  0  0  0  0  0  0
   -3.6319   -3.4294   -3.7823 H   0  0  0  0  0  0  0  0  0  0  0  0
   -6.1301   -3.1194   -2.0760 H   0  0  0  0  0  0  0  0  0  0  0  0
   -4.7070   -4.0991   -1.7747 H   0  0  0  0  0  0  0  0  0  0  0  0
   -4.2081   -1.2728   -4.9850 H   0  0  0  0  0  0  0  0  0  0  0  0
   -5.3921   -0.9129   -3.7521 H   0  0  0  0  0  0  0  0  0  0  0  0
   -4.3533   -2.3550   -0.1905 H   0  0  0  0  0  0  0  0  0  0  0  0
   -5.1822   -1.1457   -1.1816 H   0  0  0  0  0  0  0  0  0  0  0  0
   -3.6212    0.2596   -2.7987 H   0  0  0  0  0  0  0  0  0  0  0  0
   -1.6677   -1.7189   -4.0542 H   0  0  0  0  0  0  0  0  0  0  0  0
   -2.7245   -0.8769   -1.0865 H   0  0  0  0  0  0  0  0  0  0  0  0
   -2.5535   -2.2918   -1.8664 H   0  0  0  0  0  0  0  0  0  0  0  0
   -0.1885   -0.1547   -2.9753 H   0  0  0  0  0  0  0  0  0  0  0  0
  1  2  2  0
  1  3  1  0
  1 27  1  0
  2  5  1  0
  2 28  1  0
  3  6  2  0
  3 29  1  0
  4  7  1  0
  4  9  2  0
  4 30  1  0
  5  7  2  0
  5  8  1  0
  6  8  1  0
  6 16  1  0
  7 15  1  0
  8 18  2  0
  9 17  1  0
  9 18  1  0
 10 11  1  0
 10 12  1  0
 10 31  1  0
 10 32  1  0
 11 13  1  0
 11 33  1  0
 11 34  1  0
 12 14  1  0
 12 35  1  0
 12 36  1  0
 13 19  1  0
 13 37  1  0
 13 38  1  0
 14 15  1  0
 14 19  1  0
 14 39  1  1
 15 20  1  0
 15 40  1  6
 16 21  1  0
 16 22  1  0
 16 23  1  0
 17 24  1  0
 17 25  1  0
 17 26  1  0
 19 41  1  0
 19 42  1  0
 20 43  1  0
M  CHG  1  19   1
M  END
>  <group_name>  (1) 
RCH

>  <molecule_index>  (1) 
00786

>  <conformer_index>  (1) 
04

>  <method>  (1) 
b3lyp-d3bj

>  <basis>  (1) 
dzvp

>  <program>  (1) 
psi4

>  <initial_energy>  (1) 
-904749.4668311863 kilocalorie / mole

>  <final_energy>  (1) 
-904821.4773258046 kilocalorie / mole

$$$$
