RCH-01195-00
     RDKit          3D

 28 28  0  0  0  0  0  0  0  0999 V2000
   -0.7928   -1.1343   -2.0400 C   0  0  0  0  0  0  0  0  0  0  0  0
   -0.0229    0.2872    3.5235 C   0  0  0  0  0  0  0  0  0  0  0  0
    0.7960    0.3725    4.6485 C   0  0  0  0  0  0  0  0  0  0  0  0
    1.2428    2.0843    2.5660 C   0  0  0  0  0  0  0  0  0  0  0  0
    0.1942    1.1581    2.4483 C   0  0  0  0  0  0  0  0  0  0  0  0
    1.8103    1.3306    4.6461 C   0  0  0  0  0  0  0  0  0  0  0  0
   -0.7492    2.3212    0.3346 C   0  0  0  0  0  0  0  0  0  0  0  0
    1.6089   -0.0719   -0.2780 C   0  0  0  0  0  0  0  0  0  0  0  0
   -0.6573    1.0684    1.2049 C   0  0  1  0  0  0  0  0  0  0  0  0
    2.7586    1.4800    5.8252 C   0  0  0  0  0  0  0  0  0  0  0  0
   -0.5894   -1.8013   -2.9818 N   0  0  0  0  0  0  0  0  0  0  0  0
    2.0372    2.1735    3.6352 N   0  0  0  0  0  0  0  0  0  0  0  0
   -1.0640   -0.3198   -1.0134 N   0  0  0  0  0  0  0  0  0  0  0  0
   -0.0711   -1.5897    1.1127 O   0  0  0  0  0  0  0  0  0  0  0  0
    4.0330    1.2143    5.4649 F   0  0  0  0  0  0  0  0  0  0  0  0
    2.7278    2.7306    6.3296 F   0  0  0  0  0  0  0  0  0  0  0  0
    2.4347    0.6278    6.8289 F   0  0  0  0  0  0  0  0  0  0  0  0
   -0.0964   -0.4024    0.2352 S   0  0  1  0  0  0  0  0  0  0  0  0
   -0.8115   -0.4572    3.4746 H   0  0  0  0  0  0  0  0  0  0  0  0
    0.6552   -0.2865    5.4976 H   0  0  0  0  0  0  0  0  0  0  0  0
    1.4526    2.7937    1.7692 H   0  0  0  0  0  0  0  0  0  0  0  0
    0.2165    2.6178   -0.0810 H   0  0  0  0  0  0  0  0  0  0  0  0
   -1.4399    2.1514   -0.4910 H   0  0  0  0  0  0  0  0  0  0  0  0
   -1.1197    3.1478    0.9480 H   0  0  0  0  0  0  0  0  0  0  0  0
    2.2371   -0.0498    0.6127 H   0  0  0  0  0  0  0  0  0  0  0  0
    1.6486    0.8633   -0.8365 H   0  0  0  0  0  0  0  0  0  0  0  0
    1.8865   -0.9094   -0.9218 H   0  0  0  0  0  0  0  0  0  0  0  0
   -1.6655    0.7366    1.4749 H   0  0  0  0  0  0  0  0  0  0  0  0
  1 11  3  0
  1 13  1  0
  2  3  2  0
  2  5  1  0
  2 19  1  0
  3  6  1  0
  3 20  1  0
  4  5  2  0
  4 12  1  0
  4 21  1  0
  5  9  1  0
  6 10  1  0
  6 12  2  0
  7  9  1  0
  7 22  1  0
  7 23  1  0
  7 24  1  0
 18  8  1  6
  8 25  1  0
  8 26  1  0
  8 27  1  0
  9 18  1  0
  9 28  1  1
 10 15  1  0
 10 16  1  0
 10 17  1  0
 13 18  2  0
 14 18  2  0
M  END
>  <group_name>  (1) 
RCH

>  <molecule_index>  (1) 
01195

>  <conformer_index>  (1) 
00

>  <method>  (1) 
b3lyp-d3bj

>  <basis>  (1) 
dzvp

>  <program>  (1) 
psi4

>  <initial_energy>  (1) 
-830971.9133863269 kilocalorie / mole

>  <final_energy>  (1) 
-831039.5042857024 kilocalorie / mole

$$$$
