RCH-00068-03
     RDKit          3D

 43 45  0  0  0  0  0  0  0  0999 V2000
    5.1445   -3.2413   -4.6279 C   0  0  0  0  0  0  0  0  0  0  0  0
    3.9569   -3.7784   -5.0779 C   0  0  0  0  0  0  0  0  0  0  0  0
    5.5059   -1.9105   -4.9453 C   0  0  0  0  0  0  0  0  0  0  0  0
    1.0741   -2.6356   -7.1989 C   0  0  0  0  0  0  0  0  0  0  0  0
    3.0595   -3.0031   -5.8719 C   0  0  0  0  0  0  0  0  0  0  0  0
    4.6879   -1.1421   -5.7432 C   0  0  0  0  0  0  0  0  0  0  0  0
    1.7836   -3.4555   -6.3472 C   0  0  0  0  0  0  0  0  0  0  0  0
    3.4568   -1.6712   -6.2392 C   0  0  0  0  0  0  0  0  0  0  0  0
    1.5844   -1.3547   -7.5206 C   0  0  0  0  0  0  0  0  0  0  0  0
   -1.0811   -3.2650   -2.9081 C   0  0  0  0  0  0  0  0  0  0  0  0
   -0.0161   -3.4090   -1.8135 C   0  0  0  0  0  0  0  0  0  0  0  0
   -0.4426   -3.2980   -4.3044 C   0  0  0  0  0  0  0  0  0  0  0  0
    0.8177   -4.6700   -2.0113 C   0  0  0  0  0  0  0  0  0  0  0  0
    0.3785   -4.5676   -4.5089 C   0  0  1  0  0  0  0  0  0  0  0  0
    1.0781   -4.7212   -5.8784 C   0  0  2  0  0  0  0  0  0  0  0  0
    5.0942    0.2787   -6.1041 C   0  0  0  0  0  0  0  0  0  0  0  0
    0.7498   -0.4351   -8.4069 C   0  0  0  0  0  0  0  0  0  0  0  0
    2.7048   -0.8757   -7.0463 N   0  0  0  0  0  0  0  0  0  0  0  0
    1.4171   -4.6738   -3.4036 N   0  0  0  0  0  0  0  0  0  0  0  0
    1.9029   -5.8794   -5.7328 O   0  0  0  0  0  0  0  0  0  0  0  0
    4.1880    1.1758   -5.6615 F   0  0  0  0  0  0  0  0  0  0  0  0
    6.2800    0.5953   -5.5306 F   0  0  0  0  0  0  0  0  0  0  0  0
    5.2374    0.4368   -7.4324 F   0  0  0  0  0  0  0  0  0  0  0  0
    0.1719   -1.1482   -9.4057 F   0  0  0  0  0  0  0  0  0  0  0  0
   -0.2574    0.1085   -7.6736 F   0  0  0  0  0  0  0  0  0  0  0  0
    1.4623    0.5510   -8.9439 F   0  0  0  0  0  0  0  0  0  0  0  0
    5.8278   -3.8516   -4.0445 H   0  0  0  0  0  0  0  0  0  0  0  0
    3.7454   -4.8254   -4.8983 H   0  0  0  0  0  0  0  0  0  0  0  0
    6.4414   -1.5029   -4.5786 H   0  0  0  0  0  0  0  0  0  0  0  0
    0.1168   -2.9443   -7.6082 H   0  0  0  0  0  0  0  0  0  0  0  0
   -1.6224   -2.3248   -2.7774 H   0  0  0  0  0  0  0  0  0  0  0  0
   -1.8191   -4.0708   -2.8165 H   0  0  0  0  0  0  0  0  0  0  0  0
    0.6425   -2.5314   -1.8052 H   0  0  0  0  0  0  0  0  0  0  0  0
   -0.4777   -3.4619   -0.8235 H   0  0  0  0  0  0  0  0  0  0  0  0
   -1.2116   -3.2571   -5.0812 H   0  0  0  0  0  0  0  0  0  0  0  0
    0.1930   -2.4174   -4.4489 H   0  0  0  0  0  0  0  0  0  0  0  0
    1.6479   -4.7443   -1.3058 H   0  0  0  0  0  0  0  0  0  0  0  0
    0.2111   -5.5761   -1.9379 H   0  0  0  0  0  0  0  0  0  0  0  0
   -0.2499   -5.4528   -4.3725 H   0  0  0  0  0  0  0  0  0  0  0  0
    0.2677   -4.9264   -6.5875 H   0  0  0  0  0  0  0  0  0  0  0  0
    1.9538   -5.5343   -3.5718 H   0  0  0  0  0  0  0  0  0  0  0  0
    2.0891   -3.8995   -3.4943 H   0  0  0  0  0  0  0  0  0  0  0  0
    2.2354   -6.1608   -6.6017 H   0  0  0  0  0  0  0  0  0  0  0  0
  1  2  2  0
  1  3  1  0
  1 27  1  0
  2  5  1  0
  2 28  1  0
  3  6  2  0
  3 29  1  0
  4  7  1  0
  4  9  2  0
  4 30  1  0
  5  7  2  0
  5  8  1  0
  6  8  1  0
  6 16  1  0
  7 15  1  0
  8 18  2  0
  9 17  1  0
  9 18  1  0
 10 11  1  0
 10 12  1  0
 10 31  1  0
 10 32  1  0
 11 13  1  0
 11 33  1  0
 11 34  1  0
 12 14  1  0
 12 35  1  0
 12 36  1  0
 13 19  1  0
 13 37  1  0
 13 38  1  0
 14 15  1  0
 14 19  1  0
 14 39  1  1
 15 20  1  0
 15 40  1  6
 16 21  1  0
 16 22  1  0
 16 23  1  0
 17 24  1  0
 17 25  1  0
 17 26  1  0
 19 41  1  0
 19 42  1  0
 20 43  1  0
M  CHG  1  19   1
M  END
>  <group_name>  (1) 
RCH

>  <molecule_index>  (1) 
00068

>  <conformer_index>  (1) 
03

>  <method>  (1) 
b3lyp-d3bj

>  <basis>  (1) 
dzvp

>  <program>  (1) 
psi4

>  <initial_energy>  (1) 
-904738.6150835863 kilocalorie / mole

>  <final_energy>  (1) 
-904827.5483514938 kilocalorie / mole

$$$$
