RCH-00337-02
     RDKit          3D

 43 45  0  0  0  0  0  0  0  0999 V2000
    1.8327   -2.5789   -6.2650 C   0  0  0  0  0  0  0  0  0  0  0  0
    0.9648   -1.8467   -5.4855 C   0  0  0  0  0  0  0  0  0  0  0  0
    1.4560   -3.0078   -7.5612 C   0  0  0  0  0  0  0  0  0  0  0  0
   -2.4881   -0.4446   -5.8192 C   0  0  0  0  0  0  0  0  0  0  0  0
   -0.3298   -1.5045   -5.9705 C   0  0  0  0  0  0  0  0  0  0  0  0
    0.2175   -2.6882   -8.0709 C   0  0  0  0  0  0  0  0  0  0  0  0
   -1.2883   -0.7547   -5.2142 C   0  0  0  0  0  0  0  0  0  0  0  0
   -0.7043   -1.9260   -7.2909 C   0  0  0  0  0  0  0  0  0  0  0  0
   -2.7504   -0.9111   -7.1296 C   0  0  0  0  0  0  0  0  0  0  0  0
   -3.6050    2.4018   -3.3185 C   0  0  0  0  0  0  0  0  0  0  0  0
   -3.9981    2.0443   -1.8789 C   0  0  0  0  0  0  0  0  0  0  0  0
   -2.1713    1.9252   -3.6246 C   0  0  0  0  0  0  0  0  0  0  0  0
   -4.0533    0.5196   -1.6694 C   0  0  0  0  0  0  0  0  0  0  0  0
   -1.8924    0.5408   -3.0084 C   0  0  2  0  0  0  0  0  0  0  0  0
   -0.9566   -0.4068   -3.7701 C   0  0  1  0  0  0  0  0  0  0  0  0
   -0.1725   -3.1392   -9.4694 C   0  0  0  0  0  0  0  0  0  0  0  0
   -4.0745   -0.5509   -7.7969 C   0  0  0  0  0  0  0  0  0  0  0  0
   -1.9132   -1.6247   -7.8360 N   0  0  0  0  0  0  0  0  0  0  0  0
   -3.1879   -0.1945   -2.6967 N   0  0  0  0  0  0  0  0  0  0  0  0
   -0.9615   -1.5898   -2.9462 O   0  0  0  0  0  0  0  0  0  0  0  0
   -0.4295   -2.0897  -10.2754 F   0  0  0  0  0  0  0  0  0  0  0  0
   -1.2614   -3.9343   -9.4484 F   0  0  0  0  0  0  0  0  0  0  0  0
    0.8301   -3.8478  -10.0402 F   0  0  0  0  0  0  0  0  0  0  0  0
   -5.0115   -0.2579   -6.8429 F   0  0  0  0  0  0  0  0  0  0  0  0
   -4.5510   -1.5414   -8.5497 F   0  0  0  0  0  0  0  0  0  0  0  0
   -3.9378    0.5511   -8.5630 F   0  0  0  0  0  0  0  0  0  0  0  0
    2.8215   -2.8259   -5.8906 H   0  0  0  0  0  0  0  0  0  0  0  0
    1.3018   -1.5085   -4.5099 H   0  0  0  0  0  0  0  0  0  0  0  0
    2.1529   -3.5843   -8.1592 H   0  0  0  0  0  0  0  0  0  0  0  0
   -3.2444    0.1729   -5.3530 H   0  0  0  0  0  0  0  0  0  0  0  0
   -4.3217    1.9651   -4.0268 H   0  0  0  0  0  0  0  0  0  0  0  0
   -3.6663    3.4821   -3.4653 H   0  0  0  0  0  0  0  0  0  0  0  0
   -3.2761    2.4874   -1.1862 H   0  0  0  0  0  0  0  0  0  0  0  0
   -4.9746    2.4633   -1.6263 H   0  0  0  0  0  0  0  0  0  0  0  0
   -1.4548    2.6239   -3.1844 H   0  0  0  0  0  0  0  0  0  0  0  0
   -1.9870    1.9273   -4.7000 H   0  0  0  0  0  0  0  0  0  0  0  0
   -3.6826    0.2212   -0.6877 H   0  0  0  0  0  0  0  0  0  0  0  0
   -5.0609    0.1193   -1.7950 H   0  0  0  0  0  0  0  0  0  0  0  0
   -1.4409    0.6612   -2.0207 H   0  0  0  0  0  0  0  0  0  0  0  0
    0.0312    0.0694   -3.7369 H   0  0  0  0  0  0  0  0  0  0  0  0
   -3.7237   -0.3402   -3.5562 H   0  0  0  0  0  0  0  0  0  0  0  0
   -2.9129   -1.1345   -2.3755 H   0  0  0  0  0  0  0  0  0  0  0  0
   -0.4874   -2.3148   -3.3878 H   0  0  0  0  0  0  0  0  0  0  0  0
  1  2  2  0
  1  3  1  0
  1 27  1  0
  2  5  1  0
  2 28  1  0
  3  6  2  0
  3 29  1  0
  4  7  1  0
  4  9  2  0
  4 30  1  0
  5  7  2  0
  5  8  1  0
  6  8  1  0
  6 16  1  0
  7 15  1  0
  8 18  2  0
  9 17  1  0
  9 18  1  0
 10 11  1  0
 10 12  1  0
 10 31  1  0
 10 32  1  0
 11 13  1  0
 11 33  1  0
 11 34  1  0
 12 14  1  0
 12 35  1  0
 12 36  1  0
 13 19  1  0
 13 37  1  0
 13 38  1  0
 14 15  1  0
 14 19  1  0
 14 39  1  1
 15 20  1  0
 15 40  1  6
 16 21  1  0
 16 22  1  0
 16 23  1  0
 17 24  1  0
 17 25  1  0
 17 26  1  0
 19 41  1  0
 19 42  1  0
 20 43  1  0
M  CHG  1  19   1
M  END
>  <group_name>  (1) 
RCH

>  <molecule_index>  (1) 
00337

>  <conformer_index>  (1) 
02

>  <method>  (1) 
b3lyp-d3bj

>  <basis>  (1) 
dzvp

>  <program>  (1) 
psi4

>  <initial_energy>  (1) 
-904745.1726386156 kilocalorie / mole

>  <final_energy>  (1) 
-904819.29907136 kilocalorie / mole

$$$$
