RCH-00337-09
     RDKit          3D

 43 45  0  0  0  0  0  0  0  0999 V2000
    1.5184   -2.6940   -5.6655 C   0  0  0  0  0  0  0  0  0  0  0  0
    0.5792   -1.8044   -5.1923 C   0  0  0  0  0  0  0  0  0  0  0  0
    1.4078   -3.2419   -6.9667 C   0  0  0  0  0  0  0  0  0  0  0  0
   -2.5395   -0.1744   -6.4824 C   0  0  0  0  0  0  0  0  0  0  0  0
   -0.5206   -1.4157   -6.0084 C   0  0  0  0  0  0  0  0  0  0  0  0
    0.3613   -2.8862   -7.7879 C   0  0  0  0  0  0  0  0  0  0  0  0
   -1.5391   -0.4968   -5.5916 C   0  0  0  0  0  0  0  0  0  0  0  0
   -0.6259   -1.9609   -7.3317 C   0  0  0  0  0  0  0  0  0  0  0  0
   -2.5334   -0.7688   -7.7685 C   0  0  0  0  0  0  0  0  0  0  0  0
   -4.5327    1.1325   -2.3544 C   0  0  0  0  0  0  0  0  0  0  0  0
   -3.6231    0.6213   -1.2316 C   0  0  0  0  0  0  0  0  0  0  0  0
   -3.9515    0.7831   -3.7352 C   0  0  0  0  0  0  0  0  0  0  0  0
   -2.2178    1.2433   -1.3105 C   0  0  0  0  0  0  0  0  0  0  0  0
   -2.4721    1.2084   -3.9097 C   0  0  2  0  0  0  0  0  0  0  0  0
   -1.4697    0.0715   -4.1848 C   0  0  1  0  0  0  0  0  0  0  0  0
    0.2528   -3.4740   -9.1849 C   0  0  0  0  0  0  0  0  0  0  0  0
   -3.6684   -0.4546   -8.7389 C   0  0  0  0  0  0  0  0  0  0  0  0
   -1.6344   -1.6251   -8.1793 N   0  0  0  0  0  0  0  0  0  0  0  0
   -2.0186    1.9543   -2.6504 N   0  0  0  0  0  0  0  0  0  0  0  0
   -1.6465   -0.9303   -3.1766 O   0  0  0  0  0  0  0  0  0  0  0  0
    0.3163   -2.5179  -10.1331 F   0  0  0  0  0  0  0  0  0  0  0  0
    1.2685   -4.3391   -9.4203 F   0  0  0  0  0  0  0  0  0  0  0  0
   -0.8978   -4.1577   -9.3489 F   0  0  0  0  0  0  0  0  0  0  0  0
   -4.6694   -1.3533   -8.5938 F   0  0  0  0  0  0  0  0  0  0  0  0
   -4.1933    0.7726   -8.4657 F   0  0  0  0  0  0  0  0  0  0  0  0
   -3.2699   -0.4632  -10.0107 F   0  0  0  0  0  0  0  0  0  0  0  0
    2.3562   -2.9831   -5.0382 H   0  0  0  0  0  0  0  0  0  0  0  0
    0.6900   -1.4054   -4.1893 H   0  0  0  0  0  0  0  0  0  0  0  0
    2.1550   -3.9442   -7.3190 H   0  0  0  0  0  0  0  0  0  0  0  0
   -3.3340    0.5194   -6.2432 H   0  0  0  0  0  0  0  0  0  0  0  0
   -4.7050    2.2137   -2.2603 H   0  0  0  0  0  0  0  0  0  0  0  0
   -5.5191    0.6722   -2.2641 H   0  0  0  0  0  0  0  0  0  0  0  0
   -4.0571    0.8441   -0.2542 H   0  0  0  0  0  0  0  0  0  0  0  0
   -3.5313   -0.4631   -1.3154 H   0  0  0  0  0  0  0  0  0  0  0  0
   -4.0131   -0.2979   -3.8730 H   0  0  0  0  0  0  0  0  0  0  0  0
   -4.5567    1.2475   -4.5170 H   0  0  0  0  0  0  0  0  0  0  0  0
   -2.0530    2.0144   -0.5550 H   0  0  0  0  0  0  0  0  0  0  0  0
   -1.4320    0.4945   -1.2387 H   0  0  0  0  0  0  0  0  0  0  0  0
   -2.3595    1.9526   -4.7027 H   0  0  0  0  0  0  0  0  0  0  0  0
   -0.4594    0.4941   -4.0602 H   0  0  0  0  0  0  0  0  0  0  0  0
   -1.0311    2.2153   -2.7468 H   0  0  0  0  0  0  0  0  0  0  0  0
   -2.5384    2.8370   -2.6174 H   0  0  0  0  0  0  0  0  0  0  0  0
   -1.6551   -1.8116   -3.5847 H   0  0  0  0  0  0  0  0  0  0  0  0
  1  2  2  0
  1  3  1  0
  1 27  1  0
  2  5  1  0
  2 28  1  0
  3  6  2  0
  3 29  1  0
  4  7  1  0
  4  9  2  0
  4 30  1  0
  5  7  2  0
  5  8  1  0
  6  8  1  0
  6 16  1  0
  7 15  1  0
  8 18  2  0
  9 17  1  0
  9 18  1  0
 10 11  1  0
 10 12  1  0
 10 31  1  0
 10 32  1  0
 11 13  1  0
 11 33  1  0
 11 34  1  0
 12 14  1  0
 12 35  1  0
 12 36  1  0
 13 19  1  0
 13 37  1  0
 13 38  1  0
 14 15  1  0
 14 19  1  0
 14 39  1  6
 15 20  1  0
 15 40  1  1
 16 21  1  0
 16 22  1  0
 16 23  1  0
 17 24  1  0
 17 25  1  0
 17 26  1  0
 19 41  1  0
 19 42  1  0
 20 43  1  0
M  CHG  1  19   1
M  END
>  <group_name>  (1) 
RCH

>  <molecule_index>  (1) 
00337

>  <conformer_index>  (1) 
09

>  <method>  (1) 
b3lyp-d3bj

>  <basis>  (1) 
dzvp

>  <program>  (1) 
psi4

>  <initial_energy>  (1) 
-904763.2319430223 kilocalorie / mole

>  <final_energy>  (1) 
-904814.8020817455 kilocalorie / mole

$$$$
