RCH-00786-01
     RDKit          3D

 43 45  0  0  0  0  0  0  0  0999 V2000
   -2.1038   -1.6825   -8.2934 C   0  0  0  0  0  0  0  0  0  0  0  0
   -1.9451   -1.5385   -6.9322 C   0  0  0  0  0  0  0  0  0  0  0  0
   -2.1906   -0.5470   -9.1343 C   0  0  0  0  0  0  0  0  0  0  0  0
   -1.5978    1.2883   -4.4968 C   0  0  0  0  0  0  0  0  0  0  0  0
   -1.8593   -0.2445   -6.3490 C   0  0  0  0  0  0  0  0  0  0  0  0
   -2.1112    0.7234   -8.6063 C   0  0  0  0  0  0  0  0  0  0  0  0
   -1.6916   -0.0105   -4.9467 C   0  0  0  0  0  0  0  0  0  0  0  0
   -1.9403    0.9064   -7.2015 C   0  0  0  0  0  0  0  0  0  0  0  0
   -1.6991    2.3483   -5.4360 C   0  0  0  0  0  0  0  0  0  0  0  0
   -4.6673   -3.3091   -2.5278 C   0  0  0  0  0  0  0  0  0  0  0  0
   -5.3441   -2.1608   -1.7696 C   0  0  0  0  0  0  0  0  0  0  0  0
   -3.2187   -2.9522   -2.8898 C   0  0  0  0  0  0  0  0  0  0  0  0
   -5.2812   -0.8619   -2.5643 C   0  0  0  0  0  0  0  0  0  0  0  0
   -3.1349   -1.6535   -3.6907 C   0  0  2  0  0  0  0  0  0  0  0  0
   -1.6947   -1.1623   -3.9520 C   0  0  2  0  0  0  0  0  0  0  0  0
   -2.2112    1.9358   -9.5175 C   0  0  0  0  0  0  0  0  0  0  0  0
   -1.6444    3.7749   -4.9020 C   0  0  0  0  0  0  0  0  0  0  0  0
   -1.8691    2.1796   -6.7199 N   0  0  0  0  0  0  0  0  0  0  0  0
   -3.8425   -0.5479   -2.9223 N   0  0  0  0  0  0  0  0  0  0  0  0
   -1.2046   -0.7888   -2.6663 O   0  0  0  0  0  0  0  0  0  0  0  0
   -2.3652    1.5534  -10.8077 F   0  0  0  0  0  0  0  0  0  0  0  0
   -3.2758    2.7034   -9.2010 F   0  0  0  0  0  0  0  0  0  0  0  0
   -1.1045    2.7006   -9.4565 F   0  0  0  0  0  0  0  0  0  0  0  0
   -2.6686    3.9599   -4.0173 F   0  0  0  0  0  0  0  0  0  0  0  0
   -0.4947    3.9716   -4.2108 F   0  0  0  0  0  0  0  0  0  0  0  0
   -1.7382    4.6964   -5.8524 F   0  0  0  0  0  0  0  0  0  0  0  0
   -2.1566   -2.6738   -8.7332 H   0  0  0  0  0  0  0  0  0  0  0  0
   -1.8662   -2.4299   -6.3173 H   0  0  0  0  0  0  0  0  0  0  0  0
   -2.3166   -0.6791  -10.2031 H   0  0  0  0  0  0  0  0  0  0  0  0
   -1.4366    1.5103   -3.4468 H   0  0  0  0  0  0  0  0  0  0  0  0
   -4.6786   -4.2153   -1.9170 H   0  0  0  0  0  0  0  0  0  0  0  0
   -5.2347   -3.5351   -3.4388 H   0  0  0  0  0  0  0  0  0  0  0  0
   -6.3967   -2.3859   -1.5760 H   0  0  0  0  0  0  0  0  0  0  0  0
   -4.8691   -2.0166   -0.7912 H   0  0  0  0  0  0  0  0  0  0  0  0
   -2.6068   -2.8567   -1.9865 H   0  0  0  0  0  0  0  0  0  0  0  0
   -2.7689   -3.7448   -3.4957 H   0  0  0  0  0  0  0  0  0  0  0  0
   -5.8216   -0.9371   -3.5113 H   0  0  0  0  0  0  0  0  0  0  0  0
   -5.6648   -0.0044   -2.0076 H   0  0  0  0  0  0  0  0  0  0  0  0
   -3.6719   -1.7459   -4.6379 H   0  0  0  0  0  0  0  0  0  0  0  0
   -1.1260   -2.0114   -4.3460 H   0  0  0  0  0  0  0  0  0  0  0  0
   -3.7915    0.3226   -3.4684 H   0  0  0  0  0  0  0  0  0  0  0  0
   -3.2885   -0.3761   -2.0717 H   0  0  0  0  0  0  0  0  0  0  0  0
   -0.2466   -0.6311   -2.7036 H   0  0  0  0  0  0  0  0  0  0  0  0
  1  2  2  0
  1  3  1  0
  1 27  1  0
  2  5  1  0
  2 28  1  0
  3  6  2  0
  3 29  1  0
  4  7  1  0
  4  9  2  0
  4 30  1  0
  5  7  2  0
  5  8  1  0
  6  8  1  0
  6 16  1  0
  7 15  1  0
  8 18  2  0
  9 17  1  0
  9 18  1  0
 10 11  1  0
 10 12  1  0
 10 31  1  0
 10 32  1  0
 11 13  1  0
 11 33  1  0
 11 34  1  0
 12 14  1  0
 12 35  1  0
 12 36  1  0
 13 19  1  0
 13 37  1  0
 13 38  1  0
 14 15  1  0
 14 19  1  0
 14 39  1  6
 15 20  1  0
 15 40  1  6
 16 21  1  0
 16 22  1  0
 16 23  1  0
 17 24  1  0
 17 25  1  0
 17 26  1  0
 19 41  1  0
 19 42  1  0
 20 43  1  0
M  CHG  1  19   1
M  END
>  <group_name>  (1) 
RCH

>  <molecule_index>  (1) 
00786

>  <conformer_index>  (1) 
01

>  <method>  (1) 
b3lyp-d3bj

>  <basis>  (1) 
dzvp

>  <program>  (1) 
psi4

>  <initial_energy>  (1) 
-904813.8850184894 kilocalorie / mole

>  <final_energy>  (1) 
-904829.9511103724 kilocalorie / mole

$$$$
