RCH-00337-04
     RDKit          3D

 43 45  0  0  0  0  0  0  0  0999 V2000
    1.3455   -2.4273   -5.3145 C   0  0  0  0  0  0  0  0  0  0  0  0
    0.0964   -2.2262   -4.7706 C   0  0  0  0  0  0  0  0  0  0  0  0
    1.5649   -2.2637   -6.7036 C   0  0  0  0  0  0  0  0  0  0  0  0
   -3.3229   -1.3408   -6.0269 C   0  0  0  0  0  0  0  0  0  0  0  0
   -1.0014   -1.8564   -5.5960 C   0  0  0  0  0  0  0  0  0  0  0  0
    0.5276   -1.9096   -7.5378 C   0  0  0  0  0  0  0  0  0  0  0  0
   -2.3319   -1.6392   -5.1147 C   0  0  0  0  0  0  0  0  0  0  0  0
   -0.7809   -1.7023   -7.0071 C   0  0  0  0  0  0  0  0  0  0  0  0
   -2.9812   -1.1950   -7.3948 C   0  0  0  0  0  0  0  0  0  0  0  0
   -1.3233    1.8487   -2.4357 C   0  0  0  0  0  0  0  0  0  0  0  0
   -2.4943    2.6770   -2.9791 C   0  0  0  0  0  0  0  0  0  0  0  0
   -1.2555    0.4704   -3.1114 C   0  0  0  0  0  0  0  0  0  0  0  0
   -3.8158    1.9296   -2.8396 C   0  0  0  0  0  0  0  0  0  0  0  0
   -2.5726   -0.2842   -2.9615 C   0  0  2  0  0  0  0  0  0  0  0  0
   -2.6773   -1.6719   -3.6331 C   0  0  1  0  0  0  0  0  0  0  0  0
    0.7702   -1.7403   -9.0286 C   0  0  0  0  0  0  0  0  0  0  0  0
   -4.0857   -0.7825   -8.3598 C   0  0  0  0  0  0  0  0  0  0  0  0
   -1.7752   -1.3536   -7.8707 N   0  0  0  0  0  0  0  0  0  0  0  0
   -3.7036    0.5740   -3.5061 N   0  0  0  0  0  0  0  0  0  0  0  0
   -4.0354   -2.0497   -3.3961 O   0  0  0  0  0  0  0  0  0  0  0  0
    2.0668   -1.9845   -9.3333 F   0  0  0  0  0  0  0  0  0  0  0  0
    0.4971   -0.4821   -9.4342 F   0  0  0  0  0  0  0  0  0  0  0  0
    0.0216   -2.5916   -9.7564 F   0  0  0  0  0  0  0  0  0  0  0  0
   -5.1120   -1.6663   -8.3039 F   0  0  0  0  0  0  0  0  0  0  0  0
   -3.6755   -0.6760   -9.6167 F   0  0  0  0  0  0  0  0  0  0  0  0
   -4.5915    0.4264   -7.9659 F   0  0  0  0  0  0  0  0  0  0  0  0
    2.1741   -2.7213   -4.6773 H   0  0  0  0  0  0  0  0  0  0  0  0
   -0.0379   -2.3724   -3.7043 H   0  0  0  0  0  0  0  0  0  0  0  0
    2.5557   -2.4248   -7.1136 H   0  0  0  0  0  0  0  0  0  0  0  0
   -4.3602   -1.2442   -5.7221 H   0  0  0  0  0  0  0  0  0  0  0  0
   -0.3839    2.3816   -2.6019 H   0  0  0  0  0  0  0  0  0  0  0  0
   -1.4292    1.7248   -1.3513 H   0  0  0  0  0  0  0  0  0  0  0  0
   -2.5839    3.6252   -2.4417 H   0  0  0  0  0  0  0  0  0  0  0  0
   -2.3259    2.9302   -4.0335 H   0  0  0  0  0  0  0  0  0  0  0  0
   -0.4604   -0.1329   -2.6655 H   0  0  0  0  0  0  0  0  0  0  0  0
   -1.0074    0.5809   -4.1728 H   0  0  0  0  0  0  0  0  0  0  0  0
   -4.6498    2.4509   -3.3142 H   0  0  0  0  0  0  0  0  0  0  0  0
   -4.0695    1.7370   -1.7945 H   0  0  0  0  0  0  0  0  0  0  0  0
   -2.8170   -0.4216   -1.9041 H   0  0  0  0  0  0  0  0  0  0  0  0
   -2.0004   -2.3373   -3.0893 H   0  0  0  0  0  0  0  0  0  0  0  0
   -3.5612    0.6993   -4.5174 H   0  0  0  0  0  0  0  0  0  0  0  0
   -4.5722    0.0311   -3.4036 H   0  0  0  0  0  0  0  0  0  0  0  0
   -4.1878   -2.9612   -3.6976 H   0  0  0  0  0  0  0  0  0  0  0  0
  1  2  2  0
  1  3  1  0
  1 27  1  0
  2  5  1  0
  2 28  1  0
  3  6  2  0
  3 29  1  0
  4  7  1  0
  4  9  2  0
  4 30  1  0
  5  7  2  0
  5  8  1  0
  6  8  1  0
  6 16  1  0
  7 15  1  0
  8 18  2  0
  9 17  1  0
  9 18  1  0
 10 11  1  0
 10 12  1  0
 10 31  1  0
 10 32  1  0
 11 13  1  0
 11 33  1  0
 11 34  1  0
 12 14  1  0
 12 35  1  0
 12 36  1  0
 13 19  1  0
 13 37  1  0
 13 38  1  0
 14 15  1  0
 14 19  1  0
 14 39  1  1
 15 20  1  0
 15 40  1  1
 16 21  1  0
 16 22  1  0
 16 23  1  0
 17 24  1  0
 17 25  1  0
 17 26  1  0
 19 41  1  0
 19 42  1  0
 20 43  1  0
M  CHG  1  19   1
M  END
>  <group_name>  (1) 
RCH

>  <molecule_index>  (1) 
00337

>  <conformer_index>  (1) 
04

>  <method>  (1) 
b3lyp-d3bj

>  <basis>  (1) 
dzvp

>  <program>  (1) 
psi4

>  <initial_energy>  (1) 
-904743.2397331384 kilocalorie / mole

>  <final_energy>  (1) 
-904829.7406307025 kilocalorie / mole

$$$$
