RCH-00273-00
     RDKit          3D

 31 34  0  0  0  0  0  0  0  0999 V2000
   -1.1334    2.5022   -1.7407 C   0  0  0  0  0  0  0  0  0  0  0  0
   -0.1175   -2.2882   -0.3451 C   0  0  0  0  0  0  0  0  0  0  0  0
    1.0362   -6.4586    1.3225 C   0  0  0  0  0  0  0  0  0  0  0  0
    0.0122    1.4217    0.1114 C   0  0  0  0  0  0  0  0  0  0  0  0
   -0.4283    2.5942   -0.5517 C   0  0  0  0  0  0  0  0  0  0  0  0
    0.4956   -3.0565    0.6339 C   0  0  0  0  0  0  0  0  0  0  0  0
   -1.3947    1.2252   -2.2615 C   0  0  0  0  0  0  0  0  0  0  0  0
   -0.3272    0.2005   -0.5368 C   0  0  0  0  0  0  0  0  0  0  0  0
    0.5593   -4.5054    0.6478 C   0  0  0  0  0  0  0  0  0  0  0  0
    0.7941   -1.0276    1.2650 C   0  0  0  0  0  0  0  0  0  0  0  0
    0.7514    1.3896    1.3491 C   0  0  0  0  0  0  0  0  0  0  0  0
    1.1276    0.2000    1.9035 C   0  0  0  0  0  0  0  0  0  0  0  0
   -0.1341    3.9614    0.0303 C   0  0  0  0  0  0  0  0  0  0  0  0
   -2.1676    1.1050   -3.5664 C   0  0  0  0  0  0  0  0  0  0  0  0
    0.3825   -6.6178    0.2159 N   0  0  0  0  0  0  0  0  0  0  0  0
    1.0539   -2.2770    1.6206 N   0  0  0  0  0  0  0  0  0  0  0  0
   -1.0055    0.1012   -1.6812 N   0  0  0  0  0  0  0  0  0  0  0  0
    0.0662   -5.3322   -0.2323 N   0  0  0  0  0  0  0  0  0  0  0  0
    0.0744   -0.9878    0.0603 N   0  0  0  0  0  0  0  0  0  0  0  0
    1.1943   -5.1510    1.6715 O   0  0  0  0  0  0  0  0  0  0  0  0
   -0.6297    4.9538   -0.7358 F   0  0  0  0  0  0  0  0  0  0  0  0
   -0.6723    4.0990    1.2669 F   0  0  0  0  0  0  0  0  0  0  0  0
    1.1999    4.1716    0.1498 F   0  0  0  0  0  0  0  0  0  0  0  0
   -3.3886    1.6873   -3.4487 F   0  0  0  0  0  0  0  0  0  0  0  0
   -1.5172    1.7576   -4.5638 F   0  0  0  0  0  0  0  0  0  0  0  0
   -2.3464   -0.1640   -3.9463 F   0  0  0  0  0  0  0  0  0  0  0  0
   -1.4766    3.3896   -2.2589 H   0  0  0  0  0  0  0  0  0  0  0  0
   -0.6465   -2.5454   -1.2491 H   0  0  0  0  0  0  0  0  0  0  0  0
    1.4533   -7.2132    1.9738 H   0  0  0  0  0  0  0  0  0  0  0  0
    1.0100    2.3179    1.8426 H   0  0  0  0  0  0  0  0  0  0  0  0
    1.6839    0.1500    2.8333 H   0  0  0  0  0  0  0  0  0  0  0  0
  1  5  2  0
  1  7  1  0
  1 27  1  0
  2  6  2  0
  2 19  1  0
  2 28  1  0
  3 15  2  0
  3 20  1  0
  3 29  1  0
  4  5  1  0
  4  8  2  0
  4 11  1  0
  5 13  1  0
  6  9  1  0
  6 16  1  0
  7 14  1  0
  7 17  2  0
  8 17  1  0
  8 19  1  0
  9 18  2  0
  9 20  1  0
 10 12  1  0
 10 16  2  0
 10 19  1  0
 11 12  2  0
 11 30  1  0
 12 31  1  0
 13 21  1  0
 13 22  1  0
 13 23  1  0
 14 24  1  0
 14 25  1  0
 14 26  1  0
 15 18  1  0
M  END
>  <group_name>  (1) 
RCH

>  <molecule_index>  (1) 
00273

>  <conformer_index>  (1) 
00

>  <method>  (1) 
b3lyp-d3bj

>  <basis>  (1) 
dzvp

>  <program>  (1) 
psi4

>  <initial_energy>  (1) 
-931739.9433639299 kilocalorie / mole

>  <final_energy>  (1) 
-931746.1358269956 kilocalorie / mole

$$$$
