RCH-01399-04
     RDKit          3D

 44 48  0  0  0  0  0  0  0  0999 V2000
    0.4654    0.2257    1.8701 C   0  0  0  0  0  0  0  0  0  0  0  0
   -0.0029   -0.5218    2.9519 C   0  0  0  0  0  0  0  0  0  0  0  0
    0.4513    3.2982    0.3559 C   0  0  0  0  0  0  0  0  0  0  0  0
    0.1565    4.6093    0.7400 C   0  0  0  0  0  0  0  0  0  0  0  0
   -0.7300   -2.2653    1.4267 C   0  0  0  0  0  0  0  0  0  0  0  0
   -0.2527   -1.9528   -3.2554 C   0  0  0  0  0  0  0  0  0  0  0  0
    2.7512    3.9928    0.0973 C   0  0  0  0  0  0  0  0  0  0  0  0
   -0.2343   -1.5272    0.3428 C   0  0  0  0  0  0  0  0  0  0  0  0
   -0.0983   -1.1283   -2.1158 C   0  0  0  0  0  0  0  0  0  0  0  0
    0.3633   -0.2598    0.5613 C   0  0  0  0  0  0  0  0  0  0  0  0
   -0.5987   -1.7544    2.7093 C   0  0  0  0  0  0  0  0  0  0  0  0
    1.7689    2.9929    0.0321 C   0  0  0  0  0  0  0  0  0  0  0  0
   -0.3165   -1.9650   -1.0340 C   0  0  0  0  0  0  0  0  0  0  0  0
    1.2008    5.5314    0.7741 C   0  0  0  0  0  0  0  0  0  0  0  0
   -2.1997    0.9205   -2.8795 C   0  0  0  0  0  0  0  0  0  0  0  0
   -2.3057    0.9794   -1.3720 C   0  0  0  0  0  0  0  0  0  0  0  0
    0.2061    0.3245   -1.9213 C   0  0  1  0  0  0  0  0  0  0  0  0
   -0.9842    1.2667   -2.0507 C   0  0  0  0  0  0  0  0  0  0  0  0
    0.9607    6.9773    1.1795 C   0  0  0  0  0  0  0  0  0  0  0  0
    2.4702    5.2428    0.4622 N   0  0  0  0  0  0  0  0  0  0  0  0
   -0.5462   -3.2111   -2.9084 N   0  0  0  0  0  0  0  0  0  0  0  0
   -0.5901   -3.1969   -1.5532 N   0  0  0  0  0  0  0  0  0  0  0  0
    0.8480    0.4742   -0.5678 N   0  0  0  0  0  0  0  0  0  0  0  0
    3.1060    0.7995    0.6117 O   0  0  0  0  0  0  0  0  0  0  0  0
    2.8214    1.4735   -1.8261 O   0  0  0  0  0  0  0  0  0  0  0  0
   -1.0751   -2.4765    3.7536 F   0  0  0  0  0  0  0  0  0  0  0  0
    1.6975    7.3145    2.2574 F   0  0  0  0  0  0  0  0  0  0  0  0
    1.2781    7.8271    0.1808 F   0  0  0  0  0  0  0  0  0  0  0  0
   -0.3422    7.1895    1.4951 F   0  0  0  0  0  0  0  0  0  0  0  0
    2.2893    1.3406   -0.4703 S   0  0  0  0  0  0  0  0  0  0  0  0
    0.9399    1.1777    2.0709 H   0  0  0  0  0  0  0  0  0  0  0  0
    0.0858   -0.1531    3.9685 H   0  0  0  0  0  0  0  0  0  0  0  0
   -0.3262    2.5440    0.3079 H   0  0  0  0  0  0  0  0  0  0  0  0
   -0.8536    4.9017    1.0033 H   0  0  0  0  0  0  0  0  0  0  0  0
   -1.2224   -3.2223    1.2821 H   0  0  0  0  0  0  0  0  0  0  0  0
   -0.1634   -1.6939   -4.3032 H   0  0  0  0  0  0  0  0  0  0  0  0
    3.7861    3.7749   -0.1565 H   0  0  0  0  0  0  0  0  0  0  0  0
   -2.2441   -0.0607   -3.3403 H   0  0  0  0  0  0  0  0  0  0  0  0
   -2.6500    1.7184   -3.4619 H   0  0  0  0  0  0  0  0  0  0  0  0
   -2.4108    0.0360   -0.8460 H   0  0  0  0  0  0  0  0  0  0  0  0
   -2.8409    1.8104   -0.9212 H   0  0  0  0  0  0  0  0  0  0  0  0
    0.9634    0.6295   -2.6436 H   0  0  0  0  0  0  0  0  0  0  0  0
   -0.6845    2.3115   -2.0869 H   0  0  0  0  0  0  0  0  0  0  0  0
   -0.7241   -4.0709   -1.0625 H   0  0  0  0  0  0  0  0  0  0  0  0
  1  2  2  0
  1 10  1  0
  1 31  1  0
  2 11  1  0
  2 32  1  0
  3  4  2  0
  3 12  1  0
  3 33  1  0
  4 14  1  0
  4 34  1  0
  5  8  1  0
  5 11  2  0
  5 35  1  0
  6  9  1  0
  6 21  2  0
  6 36  1  0
  7 12  2  0
  7 20  1  0
  7 37  1  0
  8 10  2  0
  8 13  1  0
  9 13  2  0
  9 17  1  0
 10 23  1  0
 11 26  1  0
 12 30  1  0
 13 22  1  0
 14 19  1  0
 14 20  2  0
 15 16  1  0
 15 18  1  0
 15 38  1  0
 15 39  1  0
 16 18  1  0
 16 40  1  0
 16 41  1  0
 17 18  1  0
 17 23  1  0
 17 42  1  6
 18 43  1  0
 19 27  1  0
 19 28  1  0
 19 29  1  0
 21 22  1  0
 22 44  1  0
 23 30  1  0
 24 30  2  0
 25 30  2  0
M  END
>  <group_name>  (1) 
RCH

>  <molecule_index>  (1) 
01399

>  <conformer_index>  (1) 
04

>  <method>  (1) 
b3lyp-d3bj

>  <basis>  (1) 
dzvp

>  <program>  (1) 
psi4

>  <initial_energy>  (1) 
-1191962.8976516605 kilocalorie / mole

>  <final_energy>  (1) 
-1192032.5078765163 kilocalorie / mole

$$$$
