RCH-01399-06
     RDKit          3D

 44 48  0  0  0  0  0  0  0  0999 V2000
    1.5889    0.7958    1.1696 C   0  0  0  0  0  0  0  0  0  0  0  0
    1.8017    0.2170    2.4236 C   0  0  0  0  0  0  0  0  0  0  0  0
   -0.5604    3.2898    1.6140 C   0  0  0  0  0  0  0  0  0  0  0  0
    0.0600    4.2223    2.4485 C   0  0  0  0  0  0  0  0  0  0  0  0
    0.1627   -1.5120    1.8874 C   0  0  0  0  0  0  0  0  0  0  0  0
   -1.8228   -1.8650   -2.3794 C   0  0  0  0  0  0  0  0  0  0  0  0
    0.8649    4.0794   -0.1740 C   0  0  0  0  0  0  0  0  0  0  0  0
   -0.0545   -0.9223    0.6349 C   0  0  0  0  0  0  0  0  0  0  0  0
   -0.8189   -1.1027   -1.7329 C   0  0  0  0  0  0  0  0  0  0  0  0
    0.6588    0.2522    0.2839 C   0  0  0  0  0  0  0  0  0  0  0  0
    1.0717   -0.9205    2.7571 C   0  0  0  0  0  0  0  0  0  0  0  0
   -0.1357    3.2200    0.2926 C   0  0  0  0  0  0  0  0  0  0  0  0
   -0.9239   -1.4584   -0.3921 C   0  0  0  0  0  0  0  0  0  0  0  0
    1.0660    5.0185    1.9005 C   0  0  0  0  0  0  0  0  0  0  0  0
    0.0214   -0.3254   -4.7123 C   0  0  0  0  0  0  0  0  0  0  0  0
   -1.0108    0.7053   -4.3042 C   0  0  0  0  0  0  0  0  0  0  0  0
    0.2628   -0.1145   -2.1067 C   0  0  1  0  0  0  0  0  0  0  0  0
    0.2314    0.5287   -3.4771 C   0  0  0  0  0  0  0  0  0  0  0  0
    1.8086    6.0397    2.7490 C   0  0  0  0  0  0  0  0  0  0  0  0
    1.4659    4.9634    0.6235 N   0  0  0  0  0  0  0  0  0  0  0  0
   -2.5028   -2.6208   -1.5072 N   0  0  0  0  0  0  0  0  0  0  0  0
   -1.9325   -2.3681   -0.3066 N   0  0  0  0  0  0  0  0  0  0  0  0
    0.4037    0.8996   -0.9867 N   0  0  0  0  0  0  0  0  0  0  0  0
   -1.0620    2.7106   -2.1280 O   0  0  0  0  0  0  0  0  0  0  0  0
   -2.0582    1.4823   -0.1329 O   0  0  0  0  0  0  0  0  0  0  0  0
    1.2717   -1.4924    3.9689 F   0  0  0  0  0  0  0  0  0  0  0  0
    1.3434    6.0545    4.0231 F   0  0  0  0  0  0  0  0  0  0  0  0
    1.6742    7.2859    2.2535 F   0  0  0  0  0  0  0  0  0  0  0  0
    3.1290    5.7587    2.8053 F   0  0  0  0  0  0  0  0  0  0  0  0
   -0.9028    2.0507   -0.8356 S   0  0  0  0  0  0  0  0  0  0  0  0
    2.1517    1.6743    0.8738 H   0  0  0  0  0  0  0  0  0  0  0  0
    2.5230    0.6239    3.1246 H   0  0  0  0  0  0  0  0  0  0  0  0
   -1.3440    2.6287    1.9706 H   0  0  0  0  0  0  0  0  0  0  0  0
   -0.2240    4.3225    3.4897 H   0  0  0  0  0  0  0  0  0  0  0  0
   -0.3393   -2.4278    2.1849 H   0  0  0  0  0  0  0  0  0  0  0  0
   -2.0952   -1.9096   -3.4245 H   0  0  0  0  0  0  0  0  0  0  0  0
    1.1851    4.0460   -1.2124 H   0  0  0  0  0  0  0  0  0  0  0  0
   -0.2130   -1.3769   -4.5806 H   0  0  0  0  0  0  0  0  0  0  0  0
    0.6484   -0.1181   -5.5744 H   0  0  0  0  0  0  0  0  0  0  0  0
   -1.9534    0.3652   -3.8908 H   0  0  0  0  0  0  0  0  0  0  0  0
   -1.0874    1.6211   -4.8804 H   0  0  0  0  0  0  0  0  0  0  0  0
    1.2276   -0.6360   -2.0372 H   0  0  0  0  0  0  0  0  0  0  0  0
    0.9772    1.3130   -3.5681 H   0  0  0  0  0  0  0  0  0  0  0  0
   -2.3450   -2.7734    0.5230 H   0  0  0  0  0  0  0  0  0  0  0  0
  1  2  2  0
  1 10  1  0
  1 31  1  0
  2 11  1  0
  2 32  1  0
  3  4  2  0
  3 12  1  0
  3 33  1  0
  4 14  1  0
  4 34  1  0
  5  8  1  0
  5 11  2  0
  5 35  1  0
  6  9  1  0
  6 21  2  0
  6 36  1  0
  7 12  2  0
  7 20  1  0
  7 37  1  0
  8 10  2  0
  8 13  1  0
  9 13  2  0
  9 17  1  0
 10 23  1  0
 11 26  1  0
 12 30  1  0
 13 22  1  0
 14 19  1  0
 14 20  2  0
 15 16  1  0
 15 18  1  0
 15 38  1  0
 15 39  1  0
 16 18  1  0
 16 40  1  0
 16 41  1  0
 17 18  1  0
 17 23  1  0
 17 42  1  6
 18 43  1  0
 19 27  1  0
 19 28  1  0
 19 29  1  0
 21 22  1  0
 22 44  1  0
 23 30  1  0
 24 30  2  0
 25 30  2  0
M  END
>  <group_name>  (1) 
RCH

>  <molecule_index>  (1) 
01399

>  <conformer_index>  (1) 
06

>  <method>  (1) 
b3lyp-d3bj

>  <basis>  (1) 
dzvp

>  <program>  (1) 
psi4

>  <initial_energy>  (1) 
-1191930.4438721312 kilocalorie / mole

>  <final_energy>  (1) 
-1192028.59194299 kilocalorie / mole

$$$$
