RCH-00068-06
     RDKit          3D

 43 45  0  0  0  0  0  0  0  0999 V2000
    5.4923   -3.4222   -5.3296 C   0  0  0  0  0  0  0  0  0  0  0  0
    4.3011   -3.1279   -4.7031 C   0  0  0  0  0  0  0  0  0  0  0  0
    5.8274   -2.8154   -6.5639 C   0  0  0  0  0  0  0  0  0  0  0  0
    1.3314   -0.9322   -5.3455 C   0  0  0  0  0  0  0  0  0  0  0  0
    3.3866   -2.2062   -5.2830 C   0  0  0  0  0  0  0  0  0  0  0  0
    4.9702   -1.9135   -7.1550 C   0  0  0  0  0  0  0  0  0  0  0  0
    2.1292   -1.8499   -4.7025 C   0  0  0  0  0  0  0  0  0  0  0  0
    3.7303   -1.5839   -6.5290 C   0  0  0  0  0  0  0  0  0  0  0  0
    1.7807   -0.3794   -6.5714 C   0  0  0  0  0  0  0  0  0  0  0  0
   -0.6924   -5.3385   -4.8268 C   0  0  0  0  0  0  0  0  0  0  0  0
   -1.2587   -5.7625   -3.4676 C   0  0  0  0  0  0  0  0  0  0  0  0
   -0.0322   -3.9557   -4.7462 C   0  0  0  0  0  0  0  0  0  0  0  0
   -0.1760   -5.7435   -2.3966 C   0  0  0  0  0  0  0  0  0  0  0  0
    1.0626   -3.9011   -3.6792 C   0  0  1  0  0  0  0  0  0  0  0  0
    1.6472   -2.4952   -3.4167 C   0  0  2  0  0  0  0  0  0  0  0  0
    5.3398   -1.2661   -8.4794 C   0  0  0  0  0  0  0  0  0  0  0  0
    0.8662    0.6090   -7.2866 C   0  0  0  0  0  0  0  0  0  0  0  0
    2.9140   -0.6862   -7.1464 N   0  0  0  0  0  0  0  0  0  0  0  0
    0.4816   -4.3767   -2.3515 N   0  0  0  0  0  0  0  0  0  0  0  0
    0.5878   -1.7817   -2.7767 O   0  0  0  0  0  0  0  0  0  0  0  0
    6.5487   -1.7063   -8.9063 F   0  0  0  0  0  0  0  0  0  0  0  0
    4.4454   -1.5661   -9.4440 F   0  0  0  0  0  0  0  0  0  0  0  0
    5.4182    0.0748   -8.3760 F   0  0  0  0  0  0  0  0  0  0  0  0
   -0.2655   -0.0287   -7.6923 F   0  0  0  0  0  0  0  0  0  0  0  0
    0.4777    1.5858   -6.4263 F   0  0  0  0  0  0  0  0  0  0  0  0
    1.4349    1.1760   -8.3455 F   0  0  0  0  0  0  0  0  0  0  0  0
    6.1893   -4.1200   -4.8752 H   0  0  0  0  0  0  0  0  0  0  0  0
    4.0832   -3.5981   -3.7485 H   0  0  0  0  0  0  0  0  0  0  0  0
    6.7686   -3.0589   -7.0439 H   0  0  0  0  0  0  0  0  0  0  0  0
    0.3684   -0.6421   -4.9400 H   0  0  0  0  0  0  0  0  0  0  0  0
    0.0378   -6.0808   -5.1717 H   0  0  0  0  0  0  0  0  0  0  0  0
   -1.4912   -5.3143   -5.5721 H   0  0  0  0  0  0  0  0  0  0  0  0
   -2.0821   -5.1006   -3.1718 H   0  0  0  0  0  0  0  0  0  0  0  0
   -1.6701   -6.7749   -3.5106 H   0  0  0  0  0  0  0  0  0  0  0  0
    0.4242   -3.6968   -5.7037 H   0  0  0  0  0  0  0  0  0  0  0  0
   -0.7813   -3.1850   -4.5341 H   0  0  0  0  0  0  0  0  0  0  0  0
   -0.5643   -5.9414   -1.3952 H   0  0  0  0  0  0  0  0  0  0  0  0
    0.6212   -6.4588   -2.6142 H   0  0  0  0  0  0  0  0  0  0  0  0
    1.8695   -4.5965   -3.9245 H   0  0  0  0  0  0  0  0  0  0  0  0
    2.4922   -2.5909   -2.7194 H   0  0  0  0  0  0  0  0  0  0  0  0
   -0.1919   -3.6544   -2.0582 H   0  0  0  0  0  0  0  0  0  0  0  0
    1.2167   -4.3717   -1.6355 H   0  0  0  0  0  0  0  0  0  0  0  0
    0.8913   -0.8926   -2.5263 H   0  0  0  0  0  0  0  0  0  0  0  0
  1  2  2  0
  1  3  1  0
  1 27  1  0
  2  5  1  0
  2 28  1  0
  3  6  2  0
  3 29  1  0
  4  7  1  0
  4  9  2  0
  4 30  1  0
  5  7  2  0
  5  8  1  0
  6  8  1  0
  6 16  1  0
  7 15  1  0
  8 18  2  0
  9 17  1  0
  9 18  1  0
 10 11  1  0
 10 12  1  0
 10 31  1  0
 10 32  1  0
 11 13  1  0
 11 33  1  0
 11 34  1  0
 12 14  1  0
 12 35  1  0
 12 36  1  0
 13 19  1  0
 13 37  1  0
 13 38  1  0
 14 15  1  0
 14 19  1  0
 14 39  1  6
 15 20  1  0
 15 40  1  1
 16 21  1  0
 16 22  1  0
 16 23  1  0
 17 24  1  0
 17 25  1  0
 17 26  1  0
 19 41  1  0
 19 42  1  0
 20 43  1  0
M  CHG  1  19   1
M  END
>  <group_name>  (1) 
RCH

>  <molecule_index>  (1) 
00068

>  <conformer_index>  (1) 
06

>  <method>  (1) 
b3lyp-d3bj

>  <basis>  (1) 
dzvp

>  <program>  (1) 
psi4

>  <initial_energy>  (1) 
-904802.8436270478 kilocalorie / mole

>  <final_energy>  (1) 
-904827.5766539193 kilocalorie / mole

$$$$
