RCH-01195-06
     RDKit          3D

 28 28  0  0  0  0  0  0  0  0999 V2000
   -0.4456   -1.4606    2.1348 C   0  0  0  0  0  0  0  0  0  0  0  0
    1.9392    0.9427    2.5408 C   0  0  0  0  0  0  0  0  0  0  0  0
    2.1171    0.8731    3.9209 C   0  0  0  0  0  0  0  0  0  0  0  0
   -0.2725    1.7771    2.9629 C   0  0  0  0  0  0  0  0  0  0  0  0
    0.7140    1.3969    2.0398 C   0  0  0  0  0  0  0  0  0  0  0  0
    1.0628    1.2785    4.7396 C   0  0  0  0  0  0  0  0  0  0  0  0
    1.4339    2.1727   -0.2927 C   0  0  0  0  0  0  0  0  0  0  0  0
   -0.6214   -0.2673   -1.5619 C   0  0  0  0  0  0  0  0  0  0  0  0
    0.4084    1.4337    0.5673 C   0  0  1  0  0  0  0  0  0  0  0  0
    1.1881    1.2523    6.2543 C   0  0  0  0  0  0  0  0  0  0  0  0
   -0.2210   -1.8006    3.2329 N   0  0  0  0  0  0  0  0  0  0  0  0
   -0.1061    1.7352    4.2829 N   0  0  0  0  0  0  0  0  0  0  0  0
   -0.7943   -1.1133    0.8890 N   0  0  0  0  0  0  0  0  0  0  0  0
    1.6365   -0.8585   -0.1970 O   0  0  0  0  0  0  0  0  0  0  0  0
    2.3552    0.6800    6.6440 F   0  0  0  0  0  0  0  0  0  0  0  0
    1.1730    2.5099    6.7612 F   0  0  0  0  0  0  0  0  0  0  0  0
    0.1847    0.5692    6.8314 F   0  0  0  0  0  0  0  0  0  0  0  0
    0.2641   -0.3460    0.0006 S   0  0  1  0  0  0  0  0  0  0  0  0
    2.7244    0.6066    1.8709 H   0  0  0  0  0  0  0  0  0  0  0  0
    3.0392    0.4991    4.3501 H   0  0  0  0  0  0  0  0  0  0  0  0
   -1.2428    2.1277    2.6125 H   0  0  0  0  0  0  0  0  0  0  0  0
    2.4112    1.6897   -0.2434 H   0  0  0  0  0  0  0  0  0  0  0  0
    1.1262    2.2224   -1.3411 H   0  0  0  0  0  0  0  0  0  0  0  0
    1.5293    3.1963    0.0809 H   0  0  0  0  0  0  0  0  0  0  0  0
   -0.7433   -1.3016   -1.8866 H   0  0  0  0  0  0  0  0  0  0  0  0
   -1.5924    0.2010   -1.4019 H   0  0  0  0  0  0  0  0  0  0  0  0
   -0.0083    0.2884   -2.2710 H   0  0  0  0  0  0  0  0  0  0  0  0
   -0.5994    1.8322    0.4157 H   0  0  0  0  0  0  0  0  0  0  0  0
  1 11  3  0
  1 13  1  0
  2  3  2  0
  2  5  1  0
  2 19  1  0
  3  6  1  0
  3 20  1  0
  4  5  2  0
  4 12  1  0
  4 21  1  0
  5  9  1  0
  6 10  1  0
  6 12  2  0
  7  9  1  0
  7 22  1  0
  7 23  1  0
  7 24  1  0
 18  8  1  6
  8 25  1  0
  8 26  1  0
  8 27  1  0
  9 18  1  0
  9 28  1  1
 10 15  1  0
 10 16  1  0
 10 17  1  0
 13 18  2  0
 14 18  2  0
M  END
>  <group_name>  (1) 
RCH

>  <molecule_index>  (1) 
01195

>  <conformer_index>  (1) 
06

>  <method>  (1) 
b3lyp-d3bj

>  <basis>  (1) 
dzvp

>  <program>  (1) 
psi4

>  <initial_energy>  (1) 
-831024.0904092485 kilocalorie / mole

>  <final_energy>  (1) 
-831039.8836160405 kilocalorie / mole

$$$$
