RCH-01399-08
     RDKit          3D

 44 48  0  0  0  0  0  0  0  0999 V2000
    0.6109   -1.6356    0.9810 C   0  0  0  0  0  0  0  0  0  0  0  0
    0.2914   -1.8246    2.3272 C   0  0  0  0  0  0  0  0  0  0  0  0
    2.0921    1.7204    1.2533 C   0  0  0  0  0  0  0  0  0  0  0  0
    1.7728    2.8131    2.0612 C   0  0  0  0  0  0  0  0  0  0  0  0
   -1.1315    0.1584    2.2650 C   0  0  0  0  0  0  0  0  0  0  0  0
   -1.7607    2.6554   -1.7067 C   0  0  0  0  0  0  0  0  0  0  0  0
    1.4867    3.0757   -0.6577 C   0  0  0  0  0  0  0  0  0  0  0  0
   -0.7980    0.3570    0.9182 C   0  0  0  0  0  0  0  0  0  0  0  0
   -1.2246    1.4189   -1.2859 C   0  0  0  0  0  0  0  0  0  0  0  0
    0.0812   -0.5558    0.2724 C   0  0  0  0  0  0  0  0  0  0  0  0
   -0.5732   -0.9195    2.9395 C   0  0  0  0  0  0  0  0  0  0  0  0
    1.9110    1.8543   -0.1206 C   0  0  0  0  0  0  0  0  0  0  0  0
   -1.2872    1.4498    0.1012 C   0  0  0  0  0  0  0  0  0  0  0  0
    1.2965    3.9660    1.4367 C   0  0  0  0  0  0  0  0  0  0  0  0
   -0.1702   -0.8499   -4.2768 C   0  0  0  0  0  0  0  0  0  0  0  0
   -1.4228   -0.0101   -4.4030 C   0  0  0  0  0  0  0  0  0  0  0  0
   -0.6436    0.2047   -1.9517 C   0  0  1  0  0  0  0  0  0  0  0  0
   -0.3359    0.3742   -3.4171 C   0  0  0  0  0  0  0  0  0  0  0  0
    0.7775    5.1256    2.2691 C   0  0  0  0  0  0  0  0  0  0  0  0
    1.1790    4.1195    0.1130 N   0  0  0  0  0  0  0  0  0  0  0  0
   -2.1161    3.4097   -0.6573 N   0  0  0  0  0  0  0  0  0  0  0  0
   -1.8325    2.6562    0.4321 N   0  0  0  0  0  0  0  0  0  0  0  0
    0.4859   -0.3223   -1.0949 N   0  0  0  0  0  0  0  0  0  0  0  0
    2.9509   -0.5247   -0.4894 O   0  0  0  0  0  0  0  0  0  0  0  0
    2.2915    0.8405   -2.5416 O   0  0  0  0  0  0  0  0  0  0  0  0
   -0.8932   -1.1027    4.2432 F   0  0  0  0  0  0  0  0  0  0  0  0
    1.0661    6.3212    1.7425 F   0  0  0  0  0  0  0  0  0  0  0  0
    1.2709    5.0926    3.5311 F   0  0  0  0  0  0  0  0  0  0  0  0
   -0.5824    5.0405    2.3799 F   0  0  0  0  0  0  0  0  0  0  0  0
    2.0522    0.4039   -1.1709 S   0  0  0  0  0  0  0  0  0  0  0  0
    1.2929   -2.3088    0.4745 H   0  0  0  0  0  0  0  0  0  0  0  0
    0.6918   -2.6581    2.8950 H   0  0  0  0  0  0  0  0  0  0  0  0
    2.4499    0.7864    1.6733 H   0  0  0  0  0  0  0  0  0  0  0  0
    1.8743    2.7619    3.1395 H   0  0  0  0  0  0  0  0  0  0  0  0
   -1.8192    0.8180    2.7857 H   0  0  0  0  0  0  0  0  0  0  0  0
   -1.9028    3.0328   -2.7110 H   0  0  0  0  0  0  0  0  0  0  0  0
    1.3844    3.2037   -1.7315 H   0  0  0  0  0  0  0  0  0  0  0  0
    0.5690   -0.8067   -5.0698 H   0  0  0  0  0  0  0  0  0  0  0  0
   -0.2533   -1.8174   -3.7901 H   0  0  0  0  0  0  0  0  0  0  0  0
   -2.3520   -0.4143   -4.0103 H   0  0  0  0  0  0  0  0  0  0  0  0
   -1.5419    0.6115   -5.2852 H   0  0  0  0  0  0  0  0  0  0  0  0
   -1.3708   -0.6143   -1.8729 H   0  0  0  0  0  0  0  0  0  0  0  0
    0.2676    1.2344   -3.6775 H   0  0  0  0  0  0  0  0  0  0  0  0
   -1.9214    3.0836    1.3456 H   0  0  0  0  0  0  0  0  0  0  0  0
  1  2  2  0
  1 10  1  0
  1 31  1  0
  2 11  1  0
  2 32  1  0
  3  4  2  0
  3 12  1  0
  3 33  1  0
  4 14  1  0
  4 34  1  0
  5  8  1  0
  5 11  2  0
  5 35  1  0
  6  9  1  0
  6 21  2  0
  6 36  1  0
  7 12  2  0
  7 20  1  0
  7 37  1  0
  8 10  2  0
  8 13  1  0
  9 13  2  0
  9 17  1  0
 10 23  1  0
 11 26  1  0
 12 30  1  0
 13 22  1  0
 14 19  1  0
 14 20  2  0
 15 16  1  0
 15 18  1  0
 15 38  1  0
 15 39  1  0
 16 18  1  0
 16 40  1  0
 16 41  1  0
 17 18  1  0
 17 23  1  0
 17 42  1  6
 18 43  1  0
 19 27  1  0
 19 28  1  0
 19 29  1  0
 21 22  1  0
 22 44  1  0
 23 30  1  0
 24 30  2  0
 25 30  2  0
M  END
>  <group_name>  (1) 
RCH

>  <molecule_index>  (1) 
01399

>  <conformer_index>  (1) 
08

>  <method>  (1) 
b3lyp-d3bj

>  <basis>  (1) 
dzvp

>  <program>  (1) 
psi4

>  <initial_energy>  (1) 
-1191975.902625361 kilocalorie / mole

>  <final_energy>  (1) 
-1192037.134647541 kilocalorie / mole

$$$$
