RCH-00273-01
     RDKit          3D

 31 34  0  0  0  0  0  0  0  0999 V2000
   -1.1654    2.4255   -1.7534 C   0  0  0  0  0  0  0  0  0  0  0  0
    0.0083   -2.2687   -0.1511 C   0  0  0  0  0  0  0  0  0  0  0  0
    0.4846   -6.4405    0.3574 C   0  0  0  0  0  0  0  0  0  0  0  0
    0.0195    1.4623    0.1409 C   0  0  0  0  0  0  0  0  0  0  0  0
   -0.4605    2.5879   -0.5674 C   0  0  0  0  0  0  0  0  0  0  0  0
    0.6473   -2.9736    0.8592 C   0  0  0  0  0  0  0  0  0  0  0  0
   -1.3818    1.1239   -2.2193 C   0  0  0  0  0  0  0  0  0  0  0  0
   -0.2809    0.2016   -0.4553 C   0  0  0  0  0  0  0  0  0  0  0  0
    0.7629   -4.4169    0.9522 C   0  0  0  0  0  0  0  0  0  0  0  0
    0.8828   -0.9104    1.3959 C   0  0  0  0  0  0  0  0  0  0  0  0
    0.7632    1.5062    1.3768 C   0  0  0  0  0  0  0  0  0  0  0  0
    1.1793    0.3552    1.9797 C   0  0  0  0  0  0  0  0  0  0  0  0
   -0.2125    3.9874   -0.0425 C   0  0  0  0  0  0  0  0  0  0  0  0
   -2.1328    0.8630   -3.5150 C   0  0  0  0  0  0  0  0  0  0  0  0
    1.1553   -6.4817    1.4624 N   0  0  0  0  0  0  0  0  0  0  0  0
    1.1827   -2.1311    1.8067 N   0  0  0  0  0  0  0  0  0  0  0  0
   -0.9536    0.0349   -1.5912 N   0  0  0  0  0  0  0  0  0  0  0  0
    1.3410   -5.1511    1.8583 N   0  0  0  0  0  0  0  0  0  0  0  0
    0.1595   -0.9445    0.1936 N   0  0  0  0  0  0  0  0  0  0  0  0
    0.1900   -5.1711   -0.0447 O   0  0  0  0  0  0  0  0  0  0  0  0
   -0.7524    4.1567    1.1893 F   0  0  0  0  0  0  0  0  0  0  0  0
   -0.7441    4.9301   -0.8465 F   0  0  0  0  0  0  0  0  0  0  0  0
    1.1134    4.2483    0.0631 F   0  0  0  0  0  0  0  0  0  0  0  0
   -1.3383    0.2592   -4.4251 F   0  0  0  0  0  0  0  0  0  0  0  0
   -2.5802    2.0168   -4.0644 F   0  0  0  0  0  0  0  0  0  0  0  0
   -3.2012    0.0652   -3.3116 F   0  0  0  0  0  0  0  0  0  0  0  0
   -1.5383    3.2788   -2.3044 H   0  0  0  0  0  0  0  0  0  0  0  0
   -0.5166   -2.5741   -1.0425 H   0  0  0  0  0  0  0  0  0  0  0  0
    0.1448   -7.2611   -0.2583 H   0  0  0  0  0  0  0  0  0  0  0  0
    0.9931    2.4626    1.8291 H   0  0  0  0  0  0  0  0  0  0  0  0
    1.7398    0.3620    2.9082 H   0  0  0  0  0  0  0  0  0  0  0  0
  1  5  2  0
  1  7  1  0
  1 27  1  0
  2  6  2  0
  2 19  1  0
  2 28  1  0
  3 15  2  0
  3 20  1  0
  3 29  1  0
  4  5  1  0
  4  8  2  0
  4 11  1  0
  5 13  1  0
  6  9  1  0
  6 16  1  0
  7 14  1  0
  7 17  2  0
  8 17  1  0
  8 19  1  0
  9 18  2  0
  9 20  1  0
 10 12  1  0
 10 16  2  0
 10 19  1  0
 11 12  2  0
 11 30  1  0
 12 31  1  0
 13 21  1  0
 13 22  1  0
 13 23  1  0
 14 24  1  0
 14 25  1  0
 14 26  1  0
 15 18  1  0
M  END
>  <group_name>  (1) 
RCH

>  <molecule_index>  (1) 
00273

>  <conformer_index>  (1) 
01

>  <method>  (1) 
b3lyp-d3bj

>  <basis>  (1) 
dzvp

>  <program>  (1) 
psi4

>  <initial_energy>  (1) 
-931699.468856699 kilocalorie / mole

>  <final_energy>  (1) 
-931745.0696084565 kilocalorie / mole

$$$$
