RCH-01399-05
     RDKit          3D

 44 48  0  0  0  0  0  0  0  0999 V2000
   -1.7632   -0.4153    1.3711 C   0  0  0  0  0  0  0  0  0  0  0  0
   -1.2040   -1.0392    2.4885 C   0  0  0  0  0  0  0  0  0  0  0  0
   -0.3017    2.9245    1.7448 C   0  0  0  0  0  0  0  0  0  0  0  0
    0.9585    3.3020    2.2122 C   0  0  0  0  0  0  0  0  0  0  0  0
    1.0309   -0.6296    1.5946 C   0  0  0  0  0  0  0  0  0  0  0  0
    1.7159    1.4811   -2.5841 C   0  0  0  0  0  0  0  0  0  0  0  0
    0.3394    3.8078   -0.4159 C   0  0  0  0  0  0  0  0  0  0  0  0
    0.4695    0.0148    0.4837 C   0  0  0  0  0  0  0  0  0  0  0  0
    0.6575    0.9383   -1.8220 C   0  0  0  0  0  0  0  0  0  0  0  0
   -0.9431    0.1190    0.3757 C   0  0  0  0  0  0  0  0  0  0  0  0
    0.1837   -1.1312    2.5744 C   0  0  0  0  0  0  0  0  0  0  0  0
   -0.5933    3.1588    0.4033 C   0  0  0  0  0  0  0  0  0  0  0  0
    1.2297    0.5972   -0.6030 C   0  0  0  0  0  0  0  0  0  0  0  0
    1.8405    3.8874    1.3039 C   0  0  0  0  0  0  0  0  0  0  0  0
   -1.1869   -0.7694   -4.1515 C   0  0  0  0  0  0  0  0  0  0  0  0
   -2.4429   -0.8799   -3.3119 C   0  0  0  0  0  0  0  0  0  0  0  0
   -0.8103    0.7061   -2.0429 C   0  0  1  0  0  0  0  0  0  0  0  0
   -1.1100   -0.6519   -2.6453 C   0  0  0  0  0  0  0  0  0  0  0  0
    3.2756    4.1779    1.7089 C   0  0  0  0  0  0  0  0  0  0  0  0
    1.5440    4.1661    0.0293 N   0  0  0  0  0  0  0  0  0  0  0  0
    2.8593    1.4940   -1.8864 N   0  0  0  0  0  0  0  0  0  0  0  0
    2.5487    0.9404   -0.6907 N   0  0  0  0  0  0  0  0  0  0  0  0
   -1.5229    0.8312   -0.7293 N   0  0  0  0  0  0  0  0  0  0  0  0
   -3.0364    2.2579    0.7592 O   0  0  0  0  0  0  0  0  0  0  0  0
   -2.3772    3.0888   -1.5699 O   0  0  0  0  0  0  0  0  0  0  0  0
    0.7320   -1.7460    3.6504 F   0  0  0  0  0  0  0  0  0  0  0  0
    3.4121    4.2193    3.0571 F   0  0  0  0  0  0  0  0  0  0  0  0
    4.0950    3.1810    1.2639 F   0  0  0  0  0  0  0  0  0  0  0  0
    3.7352    5.3329    1.2112 F   0  0  0  0  0  0  0  0  0  0  0  0
   -2.0582    2.4122   -0.3138 S   0  0  0  0  0  0  0  0  0  0  0  0
   -2.8382   -0.3164    1.2722 H   0  0  0  0  0  0  0  0  0  0  0  0
   -1.8232   -1.4588    3.2747 H   0  0  0  0  0  0  0  0  0  0  0  0
   -1.0284    2.4444    2.3914 H   0  0  0  0  0  0  0  0  0  0  0  0
    1.2494    3.1284    3.2420 H   0  0  0  0  0  0  0  0  0  0  0  0
    2.1043   -0.7541    1.7013 H   0  0  0  0  0  0  0  0  0  0  0  0
    1.7039    1.8687   -3.5950 H   0  0  0  0  0  0  0  0  0  0  0  0
    0.1062    4.0288   -1.4536 H   0  0  0  0  0  0  0  0  0  0  0  0
   -0.7883   -1.6680   -4.6120 H   0  0  0  0  0  0  0  0  0  0  0  0
   -1.0479    0.1345   -4.7387 H   0  0  0  0  0  0  0  0  0  0  0  0
   -3.1405   -0.0473   -3.3263 H   0  0  0  0  0  0  0  0  0  0  0  0
   -2.9063   -1.8556   -3.2033 H   0  0  0  0  0  0  0  0  0  0  0  0
   -1.2359    1.4753   -2.6885 H   0  0  0  0  0  0  0  0  0  0  0  0
   -0.6669   -1.4900   -2.1131 H   0  0  0  0  0  0  0  0  0  0  0  0
    3.2474    0.9589    0.0414 H   0  0  0  0  0  0  0  0  0  0  0  0
  1  2  2  0
  1 10  1  0
  1 31  1  0
  2 11  1  0
  2 32  1  0
  3  4  2  0
  3 12  1  0
  3 33  1  0
  4 14  1  0
  4 34  1  0
  5  8  1  0
  5 11  2  0
  5 35  1  0
  6  9  1  0
  6 21  2  0
  6 36  1  0
  7 12  2  0
  7 20  1  0
  7 37  1  0
  8 10  2  0
  8 13  1  0
  9 13  2  0
  9 17  1  0
 10 23  1  0
 11 26  1  0
 12 30  1  0
 13 22  1  0
 14 19  1  0
 14 20  2  0
 15 16  1  0
 15 18  1  0
 15 38  1  0
 15 39  1  0
 16 18  1  0
 16 40  1  0
 16 41  1  0
 17 18  1  0
 17 23  1  0
 17 42  1  6
 18 43  1  0
 19 27  1  0
 19 28  1  0
 19 29  1  0
 21 22  1  0
 22 44  1  0
 23 30  1  0
 24 30  2  0
 25 30  2  0
M  END
>  <group_name>  (1) 
RCH

>  <molecule_index>  (1) 
01399

>  <conformer_index>  (1) 
05

>  <method>  (1) 
b3lyp-d3bj

>  <basis>  (1) 
dzvp

>  <program>  (1) 
psi4

>  <initial_energy>  (1) 
-1192029.2209456817 kilocalorie / mole

>  <final_energy>  (1) 
-1192041.466698356 kilocalorie / mole

$$$$
