RCH-00337-07
     RDKit          3D

 43 45  0  0  0  0  0  0  0  0999 V2000
    1.3490   -1.7366   -5.4567 C   0  0  0  0  0  0  0  0  0  0  0  0
    0.0825   -1.7351   -4.9123 C   0  0  0  0  0  0  0  0  0  0  0  0
    1.5324   -1.6965   -6.8602 C   0  0  0  0  0  0  0  0  0  0  0  0
   -3.4502   -1.6556   -6.1806 C   0  0  0  0  0  0  0  0  0  0  0  0
   -1.0680   -1.7004   -5.7529 C   0  0  0  0  0  0  0  0  0  0  0  0
    0.4455   -1.6719   -7.7062 C   0  0  0  0  0  0  0  0  0  0  0  0
   -2.4166   -1.6679   -5.2701 C   0  0  0  0  0  0  0  0  0  0  0  0
   -0.8809   -1.6795   -7.1760 C   0  0  0  0  0  0  0  0  0  0  0  0
   -3.1415   -1.6543   -7.5650 C   0  0  0  0  0  0  0  0  0  0  0  0
   -2.9830    1.6049   -1.4512 C   0  0  0  0  0  0  0  0  0  0  0  0
   -1.9758    2.4953   -2.1893 C   0  0  0  0  0  0  0  0  0  0  0  0
   -2.8030    0.1316   -1.8400 C   0  0  0  0  0  0  0  0  0  0  0  0
   -2.0588    2.2947   -3.6979 C   0  0  0  0  0  0  0  0  0  0  0  0
   -2.8955   -0.0755   -3.3490 C   0  0  2  0  0  0  0  0  0  0  0  0
   -2.7342   -1.5538   -3.7864 C   0  0  1  0  0  0  0  0  0  0  0  0
    0.6532   -1.6268   -9.2122 C   0  0  0  0  0  0  0  0  0  0  0  0
   -4.2989   -1.5956   -8.5577 C   0  0  0  0  0  0  0  0  0  0  0  0
   -1.9254   -1.6526   -8.0483 N   0  0  0  0  0  0  0  0  0  0  0  0
   -1.8792    0.8241   -4.0362 N   0  0  0  0  0  0  0  0  0  0  0  0
   -3.9914   -2.1133   -3.4432 O   0  0  0  0  0  0  0  0  0  0  0  0
    0.1091   -2.6939   -9.8235 F   0  0  0  0  0  0  0  0  0  0  0  0
    1.9738   -1.6186   -9.5119 F   0  0  0  0  0  0  0  0  0  0  0  0
    0.1177   -0.5084   -9.7465 F   0  0  0  0  0  0  0  0  0  0  0  0
   -5.2078   -2.5574   -8.2680 F   0  0  0  0  0  0  0  0  0  0  0  0
   -3.9099   -1.7386   -9.8203 F   0  0  0  0  0  0  0  0  0  0  0  0
   -4.9346   -0.3980   -8.4339 F   0  0  0  0  0  0  0  0  0  0  0  0
    2.2191   -1.7842   -4.8087 H   0  0  0  0  0  0  0  0  0  0  0  0
   -0.0200   -1.8128   -3.8334 H   0  0  0  0  0  0  0  0  0  0  0  0
    2.5358   -1.6952   -7.2711 H   0  0  0  0  0  0  0  0  0  0  0  0
   -4.4824   -1.6477   -5.8454 H   0  0  0  0  0  0  0  0  0  0  0  0
   -2.8586    1.7188   -0.3714 H   0  0  0  0  0  0  0  0  0  0  0  0
   -4.0044    1.9260   -1.6868 H   0  0  0  0  0  0  0  0  0  0  0  0
   -0.9546    2.2843   -1.8467 H   0  0  0  0  0  0  0  0  0  0  0  0
   -2.1605    3.5532   -1.9822 H   0  0  0  0  0  0  0  0  0  0  0  0
   -1.8310   -0.2381   -1.4846 H   0  0  0  0  0  0  0  0  0  0  0  0
   -3.5687   -0.4960   -1.3785 H   0  0  0  0  0  0  0  0  0  0  0  0
   -1.2870    2.8415   -4.2436 H   0  0  0  0  0  0  0  0  0  0  0  0
   -3.0375    2.5760   -4.0942 H   0  0  0  0  0  0  0  0  0  0  0  0
   -3.8651    0.2614   -3.7282 H   0  0  0  0  0  0  0  0  0  0  0  0
   -1.9395   -2.0164   -3.1899 H   0  0  0  0  0  0  0  0  0  0  0  0
   -1.9448    0.6879   -5.0527 H   0  0  0  0  0  0  0  0  0  0  0  0
   -0.9280    0.5308   -3.7819 H   0  0  0  0  0  0  0  0  0  0  0  0
   -3.9441   -3.0819   -3.5080 H   0  0  0  0  0  0  0  0  0  0  0  0
  1  2  2  0
  1  3  1  0
  1 27  1  0
  2  5  1  0
  2 28  1  0
  3  6  2  0
  3 29  1  0
  4  7  1  0
  4  9  2  0
  4 30  1  0
  5  7  2  0
  5  8  1  0
  6  8  1  0
  6 16  1  0
  7 15  1  0
  8 18  2  0
  9 17  1  0
  9 18  1  0
 10 11  1  0
 10 12  1  0
 10 31  1  0
 10 32  1  0
 11 13  1  0
 11 33  1  0
 11 34  1  0
 12 14  1  0
 12 35  1  0
 12 36  1  0
 13 19  1  0
 13 37  1  0
 13 38  1  0
 14 15  1  0
 14 19  1  0
 14 39  1  6
 15 20  1  0
 15 40  1  1
 16 21  1  0
 16 22  1  0
 16 23  1  0
 17 24  1  0
 17 25  1  0
 17 26  1  0
 19 41  1  0
 19 42  1  0
 20 43  1  0
M  CHG  1  19   1
M  END
>  <group_name>  (1) 
RCH

>  <molecule_index>  (1) 
00337

>  <conformer_index>  (1) 
07

>  <method>  (1) 
b3lyp-d3bj

>  <basis>  (1) 
dzvp

>  <program>  (1) 
psi4

>  <initial_energy>  (1) 
-904771.0211704227 kilocalorie / mole

>  <final_energy>  (1) 
-904824.383539727 kilocalorie / mole

$$$$
