RCH-00337-08
     RDKit          3D

 43 45  0  0  0  0  0  0  0  0999 V2000
    1.5082   -0.4875   -6.2038 C   0  0  0  0  0  0  0  0  0  0  0  0
    0.2775    0.1015   -6.0112 C   0  0  0  0  0  0  0  0  0  0  0  0
    1.6171   -1.7690   -6.7956 C   0  0  0  0  0  0  0  0  0  0  0  0
   -3.3049   -0.7803   -6.7028 C   0  0  0  0  0  0  0  0  0  0  0  0
   -0.9108   -0.5738   -6.4101 C   0  0  0  0  0  0  0  0  0  0  0  0
    0.4905   -2.4490   -7.2038 C   0  0  0  0  0  0  0  0  0  0  0  0
   -2.2334   -0.0484   -6.2326 C   0  0  0  0  0  0  0  0  0  0  0  0
   -0.8003   -1.8656   -7.0293 C   0  0  0  0  0  0  0  0  0  0  0  0
   -3.0714   -2.0440   -7.3047 C   0  0  0  0  0  0  0  0  0  0  0  0
   -3.0466    1.7878   -1.6163 C   0  0  0  0  0  0  0  0  0  0  0  0
   -2.2484    0.5469   -1.1969 C   0  0  0  0  0  0  0  0  0  0  0  0
   -2.7022    2.2094   -3.0645 C   0  0  0  0  0  0  0  0  0  0  0  0
   -2.6262   -0.6650   -2.0612 C   0  0  0  0  0  0  0  0  0  0  0  0
   -2.2934    1.0099   -3.9330 C   0  0  2  0  0  0  0  0  0  0  0  0
   -2.5325    1.2185   -5.4446 C   0  0  1  0  0  0  0  0  0  0  0  0
    0.6164   -3.8264   -7.8330 C   0  0  0  0  0  0  0  0  0  0  0  0
   -4.2800   -2.8585   -7.7507 C   0  0  0  0  0  0  0  0  0  0  0  0
   -1.8863   -2.5737   -7.4505 N   0  0  0  0  0  0  0  0  0  0  0  0
   -3.0598   -0.2090   -3.4556 N   0  0  0  0  0  0  0  0  0  0  0  0
   -1.7333    2.3431   -5.7676 O   0  0  0  0  0  0  0  0  0  0  0  0
   -0.0217   -4.7628   -7.0967 F   0  0  0  0  0  0  0  0  0  0  0  0
    0.1148   -3.8572   -9.0819 F   0  0  0  0  0  0  0  0  0  0  0  0
    1.9156   -4.1999   -7.9116 F   0  0  0  0  0  0  0  0  0  0  0  0
   -5.0926   -2.1030   -8.5288 F   0  0  0  0  0  0  0  0  0  0  0  0
   -5.0086   -3.2118   -6.6503 F   0  0  0  0  0  0  0  0  0  0  0  0
   -3.9540   -3.9621   -8.4112 F   0  0  0  0  0  0  0  0  0  0  0  0
    2.4118    0.0390   -5.9111 H   0  0  0  0  0  0  0  0  0  0  0  0
    0.2154    1.1009   -5.5984 H   0  0  0  0  0  0  0  0  0  0  0  0
    2.5954   -2.2152   -6.9360 H   0  0  0  0  0  0  0  0  0  0  0  0
   -4.3225   -0.4054   -6.6252 H   0  0  0  0  0  0  0  0  0  0  0  0
   -4.1207    1.5837   -1.5195 H   0  0  0  0  0  0  0  0  0  0  0  0
   -2.8397    2.6143   -0.9336 H   0  0  0  0  0  0  0  0  0  0  0  0
   -1.1761    0.7477   -1.2805 H   0  0  0  0  0  0  0  0  0  0  0  0
   -2.4394    0.2920   -0.1518 H   0  0  0  0  0  0  0  0  0  0  0  0
   -1.8685    2.9134   -3.0775 H   0  0  0  0  0  0  0  0  0  0  0  0
   -3.5500    2.7269   -3.5249 H   0  0  0  0  0  0  0  0  0  0  0  0
   -1.7914   -1.3520   -2.2078 H   0  0  0  0  0  0  0  0  0  0  0  0
   -3.4702   -1.2226   -1.6513 H   0  0  0  0  0  0  0  0  0  0  0  0
   -1.2438    0.7531   -3.7797 H   0  0  0  0  0  0  0  0  0  0  0  0
   -3.5986    1.4565   -5.5858 H   0  0  0  0  0  0  0  0  0  0  0  0
   -4.0612    0.0141   -3.4452 H   0  0  0  0  0  0  0  0  0  0  0  0
   -2.9516   -0.9775   -4.1310 H   0  0  0  0  0  0  0  0  0  0  0  0
   -1.8858    2.5890   -6.6955 H   0  0  0  0  0  0  0  0  0  0  0  0
  1  2  2  0
  1  3  1  0
  1 27  1  0
  2  5  1  0
  2 28  1  0
  3  6  2  0
  3 29  1  0
  4  7  1  0
  4  9  2  0
  4 30  1  0
  5  7  2  0
  5  8  1  0
  6  8  1  0
  6 16  1  0
  7 15  1  0
  8 18  2  0
  9 17  1  0
  9 18  1  0
 10 11  1  0
 10 12  1  0
 10 31  1  0
 10 32  1  0
 11 13  1  0
 11 33  1  0
 11 34  1  0
 12 14  1  0
 12 35  1  0
 12 36  1  0
 13 19  1  0
 13 37  1  0
 13 38  1  0
 14 15  1  0
 14 19  1  0
 14 39  1  6
 15 20  1  0
 15 40  1  1
 16 21  1  0
 16 22  1  0
 16 23  1  0
 17 24  1  0
 17 25  1  0
 17 26  1  0
 19 41  1  0
 19 42  1  0
 20 43  1  0
M  CHG  1  19   1
M  END
>  <group_name>  (1) 
RCH

>  <molecule_index>  (1) 
00337

>  <conformer_index>  (1) 
08

>  <method>  (1) 
b3lyp-d3bj

>  <basis>  (1) 
dzvp

>  <program>  (1) 
psi4

>  <initial_energy>  (1) 
-904753.1762674733 kilocalorie / mole

>  <final_energy>  (1) 
-904819.082648079 kilocalorie / mole

$$$$
