RCH-00068-00
     RDKit          3D

 43 45  0  0  0  0  0  0  0  0999 V2000
    6.1384   -3.1374   -5.7446 C   0  0  0  0  0  0  0  0  0  0  0  0
    4.8971   -3.4710   -5.2506 C   0  0  0  0  0  0  0  0  0  0  0  0
    6.3011   -2.0223   -6.6029 C   0  0  0  0  0  0  0  0  0  0  0  0
    1.3966   -2.1818   -5.5578 C   0  0  0  0  0  0  0  0  0  0  0  0
    3.7503   -2.6993   -5.5949 C   0  0  0  0  0  0  0  0  0  0  0  0
    5.2162   -1.2585   -6.9697 C   0  0  0  0  0  0  0  0  0  0  0  0
    2.4315   -2.9778   -5.1109 C   0  0  0  0  0  0  0  0  0  0  0  0
    3.9139   -1.5792   -6.4785 C   0  0  0  0  0  0  0  0  0  0  0  0
    1.6728   -1.1089   -6.4376 C   0  0  0  0  0  0  0  0  0  0  0  0
   -1.5690   -4.5985   -4.5407 C   0  0  0  0  0  0  0  0  0  0  0  0
   -1.8903   -4.8402   -3.0597 C   0  0  0  0  0  0  0  0  0  0  0  0
   -0.1050   -4.9718   -4.8475 C   0  0  0  0  0  0  0  0  0  0  0  0
   -1.0635   -3.9189   -2.1435 C   0  0  0  0  0  0  0  0  0  0  0  0
    0.8392   -4.5345   -3.7111 C   0  0  1  0  0  0  0  0  0  0  0  0
    2.2590   -4.0922   -4.0889 C   0  0  2  0  0  0  0  0  0  0  0  0
    5.3972   -0.0743   -7.9057 C   0  0  0  0  0  0  0  0  0  0  0  0
    0.5417   -0.1953   -6.9022 C   0  0  0  0  0  0  0  0  0  0  0  0
    2.8688   -0.8052   -6.8721 N   0  0  0  0  0  0  0  0  0  0  0  0
    0.2001   -3.4541   -2.8512 N   0  0  0  0  0  0  0  0  0  0  0  0
    2.8245   -3.7130   -2.8181 O   0  0  0  0  0  0  0  0  0  0  0  0
    5.0098    1.0800   -7.3263 F   0  0  0  0  0  0  0  0  0  0  0  0
    6.6988    0.0679   -8.2507 F   0  0  0  0  0  0  0  0  0  0  0  0
    4.6961   -0.2324   -9.0460 F   0  0  0  0  0  0  0  0  0  0  0  0
    0.5554   -0.0118   -8.2250 F   0  0  0  0  0  0  0  0  0  0  0  0
   -0.6684   -0.7354   -6.5670 F   0  0  0  0  0  0  0  0  0  0  0  0
    0.6198    1.0063   -6.2981 F   0  0  0  0  0  0  0  0  0  0  0  0
    7.0052   -3.7371   -5.4837 H   0  0  0  0  0  0  0  0  0  0  0  0
    4.8082   -4.3512   -4.6204 H   0  0  0  0  0  0  0  0  0  0  0  0
    7.2871   -1.7751   -6.9804 H   0  0  0  0  0  0  0  0  0  0  0  0
    0.3602   -2.3596   -5.3037 H   0  0  0  0  0  0  0  0  0  0  0  0
   -2.2337   -5.1949   -5.1691 H   0  0  0  0  0  0  0  0  0  0  0  0
   -1.7692   -3.5521   -4.8072 H   0  0  0  0  0  0  0  0  0  0  0  0
   -2.9498   -4.6681   -2.8577 H   0  0  0  0  0  0  0  0  0  0  0  0
   -1.6882   -5.8868   -2.8121 H   0  0  0  0  0  0  0  0  0  0  0  0
    0.2047   -4.5533   -5.8063 H   0  0  0  0  0  0  0  0  0  0  0  0
   -0.0185   -6.0579   -4.9385 H   0  0  0  0  0  0  0  0  0  0  0  0
   -1.6048   -3.0121   -1.8679 H   0  0  0  0  0  0  0  0  0  0  0  0
   -0.7423   -4.4209   -1.2297 H   0  0  0  0  0  0  0  0  0  0  0  0
    0.9711   -5.3573   -3.0044 H   0  0  0  0  0  0  0  0  0  0  0  0
    2.7542   -4.9963   -4.4643 H   0  0  0  0  0  0  0  0  0  0  0  0
    0.9245   -3.1553   -2.1815 H   0  0  0  0  0  0  0  0  0  0  0  0
   -0.0084   -2.6310   -3.4218 H   0  0  0  0  0  0  0  0  0  0  0  0
    3.6971   -3.3024   -2.9424 H   0  0  0  0  0  0  0  0  0  0  0  0
  1  2  2  0
  1  3  1  0
  1 27  1  0
  2  5  1  0
  2 28  1  0
  3  6  2  0
  3 29  1  0
  4  7  1  0
  4  9  2  0
  4 30  1  0
  5  7  2  0
  5  8  1  0
  6  8  1  0
  6 16  1  0
  7 15  1  0
  8 18  2  0
  9 17  1  0
  9 18  1  0
 10 11  1  0
 10 12  1  0
 10 31  1  0
 10 32  1  0
 11 13  1  0
 11 33  1  0
 11 34  1  0
 12 14  1  0
 12 35  1  0
 12 36  1  0
 13 19  1  0
 13 37  1  0
 13 38  1  0
 14 15  1  0
 14 19  1  0
 14 39  1  1
 15 20  1  0
 15 40  1  6
 16 21  1  0
 16 22  1  0
 16 23  1  0
 17 24  1  0
 17 25  1  0
 17 26  1  0
 19 41  1  0
 19 42  1  0
 20 43  1  0
M  CHG  1  19   1
M  END
>  <group_name>  (1) 
RCH

>  <molecule_index>  (1) 
00068

>  <conformer_index>  (1) 
00

>  <method>  (1) 
b3lyp-d3bj

>  <basis>  (1) 
dzvp

>  <program>  (1) 
psi4

>  <initial_energy>  (1) 
-904769.2194458025 kilocalorie / mole

>  <final_energy>  (1) 
-904819.1956009633 kilocalorie / mole

$$$$
