RCH-00337-01
     RDKit          3D

 43 45  0  0  0  0  0  0  0  0999 V2000
    1.8000   -2.3174   -6.2152 C   0  0  0  0  0  0  0  0  0  0  0  0
    0.7486   -1.9286   -5.4149 C   0  0  0  0  0  0  0  0  0  0  0  0
    1.6320   -2.4610   -7.6143 C   0  0  0  0  0  0  0  0  0  0  0  0
   -2.8790   -1.1326   -5.8698 C   0  0  0  0  0  0  0  0  0  0  0  0
   -0.5280   -1.6717   -5.9850 C   0  0  0  0  0  0  0  0  0  0  0  0
    0.4061   -2.2348   -8.2009 C   0  0  0  0  0  0  0  0  0  0  0  0
   -1.6677   -1.2612   -5.2211 C   0  0  0  0  0  0  0  0  0  0  0  0
   -0.7086   -1.8488   -7.3984 C   0  0  0  0  0  0  0  0  0  0  0  0
   -2.9389   -1.3355   -7.2722 C   0  0  0  0  0  0  0  0  0  0  0  0
   -3.4494    1.2652   -1.1515 C   0  0  0  0  0  0  0  0  0  0  0  0
   -3.9930    2.2272   -2.2318 C   0  0  0  0  0  0  0  0  0  0  0  0
   -2.3268    0.3578   -1.6997 C   0  0  0  0  0  0  0  0  0  0  0  0
   -2.9122    2.5836   -3.2418 C   0  0  0  0  0  0  0  0  0  0  0  0
   -2.5552    0.0195   -3.1684 C   0  0  2  0  0  0  0  0  0  0  0  0
   -1.5370   -0.9967   -3.7303 C   0  0  1  0  0  0  0  0  0  0  0  0
    0.2344   -2.3984   -9.7017 C   0  0  0  0  0  0  0  0  0  0  0  0
   -4.2803   -1.1121   -7.9585 C   0  0  0  0  0  0  0  0  0  0  0  0
   -1.9113   -1.6586   -8.0105 N   0  0  0  0  0  0  0  0  0  0  0  0
   -2.4631    1.3200   -3.9844 N   0  0  0  0  0  0  0  0  0  0  0  0
   -1.6069   -2.1843   -2.9534 O   0  0  0  0  0  0  0  0  0  0  0  0
   -0.6687   -3.3529  -10.0000 F   0  0  0  0  0  0  0  0  0  0  0  0
    1.4040   -2.7562  -10.2821 F   0  0  0  0  0  0  0  0  0  0  0  0
   -0.1617   -1.2453  -10.2819 F   0  0  0  0  0  0  0  0  0  0  0  0
   -5.2200   -1.9351   -7.4307 F   0  0  0  0  0  0  0  0  0  0  0  0
   -4.2394   -1.2886   -9.2711 F   0  0  0  0  0  0  0  0  0  0  0  0
   -4.7012    0.1664   -7.7048 F   0  0  0  0  0  0  0  0  0  0  0  0
    2.7700   -2.5254   -5.7739 H   0  0  0  0  0  0  0  0  0  0  0  0
    0.8944   -1.8589   -4.3423 H   0  0  0  0  0  0  0  0  0  0  0  0
    2.4746   -2.7605   -8.2277 H   0  0  0  0  0  0  0  0  0  0  0  0
   -3.7996   -0.8962   -5.3435 H   0  0  0  0  0  0  0  0  0  0  0  0
   -3.0625    1.8341   -0.3022 H   0  0  0  0  0  0  0  0  0  0  0  0
   -4.2708    0.6533   -0.7697 H   0  0  0  0  0  0  0  0  0  0  0  0
   -4.3565    3.1559   -1.7844 H   0  0  0  0  0  0  0  0  0  0  0  0
   -4.8501    1.7917   -2.7581 H   0  0  0  0  0  0  0  0  0  0  0  0
   -2.2709   -0.5809   -1.1461 H   0  0  0  0  0  0  0  0  0  0  0  0
   -1.3444    0.8353   -1.5927 H   0  0  0  0  0  0  0  0  0  0  0  0
   -3.2473    3.2910   -4.0019 H   0  0  0  0  0  0  0  0  0  0  0  0
   -2.0251    2.9900   -2.7534 H   0  0  0  0  0  0  0  0  0  0  0  0
   -3.5747   -0.3465   -3.3063 H   0  0  0  0  0  0  0  0  0  0  0  0
   -0.5427   -0.5759   -3.5335 H   0  0  0  0  0  0  0  0  0  0  0  0
   -1.4947    1.4468   -4.3005 H   0  0  0  0  0  0  0  0  0  0  0  0
   -3.0106    1.2076   -4.8446 H   0  0  0  0  0  0  0  0  0  0  0  0
   -2.1283   -2.8532   -3.4276 H   0  0  0  0  0  0  0  0  0  0  0  0
  1  2  2  0
  1  3  1  0
  1 27  1  0
  2  5  1  0
  2 28  1  0
  3  6  2  0
  3 29  1  0
  4  7  1  0
  4  9  2  0
  4 30  1  0
  5  7  2  0
  5  8  1  0
  6  8  1  0
  6 16  1  0
  7 15  1  0
  8 18  2  0
  9 17  1  0
  9 18  1  0
 10 11  1  0
 10 12  1  0
 10 31  1  0
 10 32  1  0
 11 13  1  0
 11 33  1  0
 11 34  1  0
 12 14  1  0
 12 35  1  0
 12 36  1  0
 13 19  1  0
 13 37  1  0
 13 38  1  0
 14 15  1  0
 14 19  1  0
 14 39  1  1
 15 20  1  0
 15 40  1  6
 16 21  1  0
 16 22  1  0
 16 23  1  0
 17 24  1  0
 17 25  1  0
 17 26  1  0
 19 41  1  0
 19 42  1  0
 20 43  1  0
M  CHG  1  19   1
M  END
>  <group_name>  (1) 
RCH

>  <molecule_index>  (1) 
00337

>  <conformer_index>  (1) 
01

>  <method>  (1) 
b3lyp-d3bj

>  <basis>  (1) 
dzvp

>  <program>  (1) 
psi4

>  <initial_energy>  (1) 
-904740.1274709521 kilocalorie / mole

>  <final_energy>  (1) 
-904816.150711602 kilocalorie / mole

$$$$
