RCH-01399-01
     RDKit          3D

 44 48  0  0  0  0  0  0  0  0999 V2000
   -0.5976    0.7454    1.1493 C   0  0  0  0  0  0  0  0  0  0  0  0
   -0.8406    0.0063    2.3101 C   0  0  0  0  0  0  0  0  0  0  0  0
    1.6562    3.3023    1.4506 C   0  0  0  0  0  0  0  0  0  0  0  0
    1.1697    4.3493    2.2378 C   0  0  0  0  0  0  0  0  0  0  0  0
    0.1671   -1.9493    1.2548 C   0  0  0  0  0  0  0  0  0  0  0  0
    1.5461   -1.9374   -3.2622 C   0  0  0  0  0  0  0  0  0  0  0  0
    0.3024    4.1615   -0.3621 C   0  0  0  0  0  0  0  0  0  0  0  0
    0.4238   -1.2003    0.0990 C   0  0  0  0  0  0  0  0  0  0  0  0
    0.9191   -1.0705   -2.3392 C   0  0  0  0  0  0  0  0  0  0  0  0
    0.0492    0.1656    0.0576 C   0  0  0  0  0  0  0  0  0  0  0  0
   -0.4414   -1.3267    2.3381 C   0  0  0  0  0  0  0  0  0  0  0  0
    1.2022    3.2139    0.1399 C   0  0  0  0  0  0  0  0  0  0  0  0
    0.9873   -1.7337   -1.1226 C   0  0  0  0  0  0  0  0  0  0  0  0
    0.2602    5.2331    1.6571 C   0  0  0  0  0  0  0  0  0  0  0  0
   -2.3806   -0.1023   -2.0875 C   0  0  0  0  0  0  0  0  0  0  0  0
   -2.1835    1.2901   -2.6607 C   0  0  0  0  0  0  0  0  0  0  0  0
    0.2571    0.2757   -2.4378 C   0  0  1  0  0  0  0  0  0  0  0  0
   -1.1786    0.2037   -2.9489 C   0  0  0  0  0  0  0  0  0  0  0  0
   -0.3343    6.3849    2.4536 C   0  0  0  0  0  0  0  0  0  0  0  0
   -0.1684    5.1558    0.3904 N   0  0  0  0  0  0  0  0  0  0  0  0
    1.9776   -3.0564   -2.6649 N   0  0  0  0  0  0  0  0  0  0  0  0
    1.6178   -2.9191   -1.3666 N   0  0  0  0  0  0  0  0  0  0  0  0
    0.3376    0.9623   -1.1087 N   0  0  0  0  0  0  0  0  0  0  0  0
    2.0864    2.4629   -2.2367 O   0  0  0  0  0  0  0  0  0  0  0  0
    2.8042    1.1585   -0.1619 O   0  0  0  0  0  0  0  0  0  0  0  0
   -0.6801   -2.0575    3.4539 F   0  0  0  0  0  0  0  0  0  0  0  0
   -0.0556    7.5743    1.8844 F   0  0  0  0  0  0  0  0  0  0  0  0
    0.1531    6.4129    3.7191 F   0  0  0  0  0  0  0  0  0  0  0  0
   -1.6774    6.2735    2.5407 F   0  0  0  0  0  0  0  0  0  0  0  0
    1.7908    1.8932   -0.9213 S   0  0  0  0  0  0  0  0  0  0  0  0
   -0.9321    1.7746    1.0845 H   0  0  0  0  0  0  0  0  0  0  0  0
   -1.3450    0.4402    3.1673 H   0  0  0  0  0  0  0  0  0  0  0  0
    2.3573    2.5686    1.8358 H   0  0  0  0  0  0  0  0  0  0  0  0
    1.4837    4.4709    3.2681 H   0  0  0  0  0  0  0  0  0  0  0  0
    0.4101   -3.0058    1.3184 H   0  0  0  0  0  0  0  0  0  0  0  0
    1.7120   -1.8035   -4.3240 H   0  0  0  0  0  0  0  0  0  0  0  0
   -0.0412    4.1111   -1.3925 H   0  0  0  0  0  0  0  0  0  0  0  0
   -3.1548   -0.7296   -2.5193 H   0  0  0  0  0  0  0  0  0  0  0  0
   -2.2470   -0.2304   -1.0201 H   0  0  0  0  0  0  0  0  0  0  0  0
   -2.8329    1.6221   -3.4652 H   0  0  0  0  0  0  0  0  0  0  0  0
   -1.8827    2.0667   -1.9641 H   0  0  0  0  0  0  0  0  0  0  0  0
    0.8080    0.9124   -3.1325 H   0  0  0  0  0  0  0  0  0  0  0  0
   -1.2073   -0.2218   -3.9499 H   0  0  0  0  0  0  0  0  0  0  0  0
    1.9148   -3.6227   -0.7039 H   0  0  0  0  0  0  0  0  0  0  0  0
  1  2  2  0
  1 10  1  0
  1 31  1  0
  2 11  1  0
  2 32  1  0
  3  4  2  0
  3 12  1  0
  3 33  1  0
  4 14  1  0
  4 34  1  0
  5  8  1  0
  5 11  2  0
  5 35  1  0
  6  9  1  0
  6 21  2  0
  6 36  1  0
  7 12  2  0
  7 20  1  0
  7 37  1  0
  8 10  2  0
  8 13  1  0
  9 13  2  0
  9 17  1  0
 10 23  1  0
 11 26  1  0
 12 30  1  0
 13 22  1  0
 14 19  1  0
 14 20  2  0
 15 16  1  0
 15 18  1  0
 15 38  1  0
 15 39  1  0
 16 18  1  0
 16 40  1  0
 16 41  1  0
 17 18  1  0
 17 23  1  0
 17 42  1  6
 18 43  1  0
 19 27  1  0
 19 28  1  0
 19 29  1  0
 21 22  1  0
 22 44  1  0
 23 30  1  0
 24 30  2  0
 25 30  2  0
M  END
>  <group_name>  (1) 
RCH

>  <molecule_index>  (1) 
01399

>  <conformer_index>  (1) 
01

>  <method>  (1) 
b3lyp-d3bj

>  <basis>  (1) 
dzvp

>  <program>  (1) 
psi4

>  <initial_energy>  (1) 
-1191959.9117175082 kilocalorie / mole

>  <final_energy>  (1) 
-1192033.9581979122 kilocalorie / mole

$$$$
