RCH-00786-03
     RDKit          3D

 43 45  0  0  0  0  0  0  0  0999 V2000
   -2.0606   -1.6791   -7.9802 C   0  0  0  0  0  0  0  0  0  0  0  0
   -2.9186   -1.2610   -6.9848 C   0  0  0  0  0  0  0  0  0  0  0  0
   -1.0850   -0.8042   -8.5134 C   0  0  0  0  0  0  0  0  0  0  0  0
   -3.5293    1.9141   -5.0661 C   0  0  0  0  0  0  0  0  0  0  0  0
   -2.8410    0.0665   -6.4646 C   0  0  0  0  0  0  0  0  0  0  0  0
   -0.9993    0.4946   -8.0636 C   0  0  0  0  0  0  0  0  0  0  0  0
   -3.6574    0.5833   -5.4023 C   0  0  0  0  0  0  0  0  0  0  0  0
   -1.8809    0.9670   -7.0439 C   0  0  0  0  0  0  0  0  0  0  0  0
   -2.5715    2.7152   -5.7347 C   0  0  0  0  0  0  0  0  0  0  0  0
   -3.9001   -2.1681   -1.1458 C   0  0  0  0  0  0  0  0  0  0  0  0
   -3.0749   -3.3100   -1.7506 C   0  0  0  0  0  0  0  0  0  0  0  0
   -4.7005   -1.4293   -2.2273 C   0  0  0  0  0  0  0  0  0  0  0  0
   -2.1673   -2.8033   -2.8648 C   0  0  0  0  0  0  0  0  0  0  0  0
   -3.8008   -0.9081   -3.3493 C   0  0  2  0  0  0  0  0  0  0  0  0
   -4.5750   -0.2516   -4.5126 C   0  0  2  0  0  0  0  0  0  0  0  0
    0.0395    1.4366   -8.6532 C   0  0  0  0  0  0  0  0  0  0  0  0
   -2.4434    4.1790   -5.3241 C   0  0  0  0  0  0  0  0  0  0  0  0
   -1.7669    2.2681   -6.6624 N   0  0  0  0  0  0  0  0  0  0  0  0
   -2.9915   -2.0700   -3.9049 N   0  0  0  0  0  0  0  0  0  0  0  0
   -5.2756   -1.3167   -5.1526 O   0  0  0  0  0  0  0  0  0  0  0  0
    0.8914    1.8834   -7.7065 F   0  0  0  0  0  0  0  0  0  0  0  0
    0.7837    0.7990   -9.5888 F   0  0  0  0  0  0  0  0  0  0  0  0
   -0.5294    2.4991   -9.2508 F   0  0  0  0  0  0  0  0  0  0  0  0
   -3.6546    4.7850   -5.3970 F   0  0  0  0  0  0  0  0  0  0  0  0
   -2.0423    4.2524   -4.0262 F   0  0  0  0  0  0  0  0  0  0  0  0
   -1.5798    4.8560   -6.0734 F   0  0  0  0  0  0  0  0  0  0  0  0
   -2.1460   -2.6854   -8.3800 H   0  0  0  0  0  0  0  0  0  0  0  0
   -3.7046   -1.9250   -6.6467 H   0  0  0  0  0  0  0  0  0  0  0  0
   -0.4157   -1.1520   -9.2923 H   0  0  0  0  0  0  0  0  0  0  0  0
   -4.1411    2.3579   -4.2852 H   0  0  0  0  0  0  0  0  0  0  0  0
   -3.2349   -1.4647   -0.6307 H   0  0  0  0  0  0  0  0  0  0  0  0
   -4.5847   -2.5635   -0.3913 H   0  0  0  0  0  0  0  0  0  0  0  0
   -2.4452   -3.7830   -0.9918 H   0  0  0  0  0  0  0  0  0  0  0  0
   -3.7355   -4.0935   -2.1428 H   0  0  0  0  0  0  0  0  0  0  0  0
   -5.4671   -2.0834   -2.6573 H   0  0  0  0  0  0  0  0  0  0  0  0
   -5.2222   -0.5705   -1.7948 H   0  0  0  0  0  0  0  0  0  0  0  0
   -1.4312   -2.0842   -2.4971 H   0  0  0  0  0  0  0  0  0  0  0  0
   -1.6434   -3.6081   -3.3848 H   0  0  0  0  0  0  0  0  0  0  0  0
   -3.0688   -0.1967   -2.9587 H   0  0  0  0  0  0  0  0  0  0  0  0
   -5.2857    0.4358   -4.0390 H   0  0  0  0  0  0  0  0  0  0  0  0
   -3.6611   -2.7159   -4.3428 H   0  0  0  0  0  0  0  0  0  0  0  0
   -2.3867   -1.7384   -4.6688 H   0  0  0  0  0  0  0  0  0  0  0  0
   -5.9351   -0.9556   -5.7680 H   0  0  0  0  0  0  0  0  0  0  0  0
  1  2  2  0
  1  3  1  0
  1 27  1  0
  2  5  1  0
  2 28  1  0
  3  6  2  0
  3 29  1  0
  4  7  1  0
  4  9  2  0
  4 30  1  0
  5  7  2  0
  5  8  1  0
  6  8  1  0
  6 16  1  0
  7 15  1  0
  8 18  2  0
  9 17  1  0
  9 18  1  0
 10 11  1  0
 10 12  1  0
 10 31  1  0
 10 32  1  0
 11 13  1  0
 11 33  1  0
 11 34  1  0
 12 14  1  0
 12 35  1  0
 12 36  1  0
 13 19  1  0
 13 37  1  0
 13 38  1  0
 14 15  1  0
 14 19  1  0
 14 39  1  1
 15 20  1  0
 15 40  1  1
 16 21  1  0
 16 22  1  0
 16 23  1  0
 17 24  1  0
 17 25  1  0
 17 26  1  0
 19 41  1  0
 19 42  1  0
 20 43  1  0
M  CHG  1  19   1
M  END
>  <group_name>  (1) 
RCH

>  <molecule_index>  (1) 
00786

>  <conformer_index>  (1) 
03

>  <method>  (1) 
b3lyp-d3bj

>  <basis>  (1) 
dzvp

>  <program>  (1) 
psi4

>  <initial_energy>  (1) 
-904711.8124118114 kilocalorie / mole

>  <final_energy>  (1) 
-904826.7859005573 kilocalorie / mole

$$$$
