RCH-00068-07
     RDKit          3D

 43 45  0  0  0  0  0  0  0  0999 V2000
    5.4265   -3.6374   -5.8849 C   0  0  0  0  0  0  0  0  0  0  0  0
    4.0679   -3.8674   -5.8951 C   0  0  0  0  0  0  0  0  0  0  0  0
    5.9463   -2.3392   -6.1050 C   0  0  0  0  0  0  0  0  0  0  0  0
    0.9621   -1.8243   -6.4110 C   0  0  0  0  0  0  0  0  0  0  0  0
    3.1615   -2.7950   -6.1285 C   0  0  0  0  0  0  0  0  0  0  0  0
    5.1008   -1.2774   -6.3428 C   0  0  0  0  0  0  0  0  0  0  0  0
    1.7349   -2.9365   -6.1418 C   0  0  0  0  0  0  0  0  0  0  0  0
    3.6884   -1.4789   -6.3646 C   0  0  0  0  0  0  0  0  0  0  0  0
    1.5964   -0.5727   -6.6252 C   0  0  0  0  0  0  0  0  0  0  0  0
   -0.0872   -5.5810   -2.2865 C   0  0  0  0  0  0  0  0  0  0  0  0
   -0.9919   -4.3584   -2.0022 C   0  0  0  0  0  0  0  0  0  0  0  0
    0.2559   -5.6839   -3.7774 C   0  0  0  0  0  0  0  0  0  0  0  0
   -0.7815   -3.2414   -3.0326 C   0  0  0  0  0  0  0  0  0  0  0  0
    1.1001   -4.4865   -4.2318 C   0  0  1  0  0  0  0  0  0  0  0  0
    1.0110   -4.2169   -5.7536 C   0  0  2  0  0  0  0  0  0  0  0  0
    5.6684    0.1125   -6.5777 C   0  0  0  0  0  0  0  0  0  0  0  0
    0.7104    0.6484   -6.8409 C   0  0  0  0  0  0  0  0  0  0  0  0
    2.8901   -0.3975   -6.5947 N   0  0  0  0  0  0  0  0  0  0  0  0
    0.6695   -3.2254   -3.4698 N   0  0  0  0  0  0  0  0  0  0  0  0
    1.5121   -5.4061   -6.3379 O   0  0  0  0  0  0  0  0  0  0  0  0
    7.0210    0.0934   -6.5176 F   0  0  0  0  0  0  0  0  0  0  0  0
    5.2419    0.9851   -5.6390 F   0  0  0  0  0  0  0  0  0  0  0  0
    5.3281    0.5945   -7.7884 F   0  0  0  0  0  0  0  0  0  0  0  0
    1.3918    1.7479   -7.1351 F   0  0  0  0  0  0  0  0  0  0  0  0
   -0.1872    0.4086   -7.8273 F   0  0  0  0  0  0  0  0  0  0  0  0
   -0.0114    0.8775   -5.7027 F   0  0  0  0  0  0  0  0  0  0  0  0
    6.1137   -4.4616   -5.7185 H   0  0  0  0  0  0  0  0  0  0  0  0
    3.6889   -4.8741   -5.7691 H   0  0  0  0  0  0  0  0  0  0  0  0
    7.0190   -2.1805   -6.0934 H   0  0  0  0  0  0  0  0  0  0  0  0
   -0.1216   -1.8912   -6.4726 H   0  0  0  0  0  0  0  0  0  0  0  0
   -0.5838   -6.4948   -1.9543 H   0  0  0  0  0  0  0  0  0  0  0  0
    0.8391   -5.5144   -1.7023 H   0  0  0  0  0  0  0  0  0  0  0  0
   -0.8122   -3.9749   -0.9936 H   0  0  0  0  0  0  0  0  0  0  0  0
   -2.0466   -4.6426   -2.0440 H   0  0  0  0  0  0  0  0  0  0  0  0
   -0.6599   -5.7446   -4.3754 H   0  0  0  0  0  0  0  0  0  0  0  0
    0.8248   -6.5893   -3.9939 H   0  0  0  0  0  0  0  0  0  0  0  0
   -1.0145   -2.2502   -2.6398 H   0  0  0  0  0  0  0  0  0  0  0  0
   -1.3662   -3.3950   -3.9404 H   0  0  0  0  0  0  0  0  0  0  0  0
    2.1482   -4.6346   -3.9649 H   0  0  0  0  0  0  0  0  0  0  0  0
   -0.0514   -4.0875   -6.0099 H   0  0  0  0  0  0  0  0  0  0  0  0
    0.8577   -2.4023   -4.0631 H   0  0  0  0  0  0  0  0  0  0  0  0
    1.2601   -3.1174   -2.6394 H   0  0  0  0  0  0  0  0  0  0  0  0
    1.4087   -5.3579   -7.3030 H   0  0  0  0  0  0  0  0  0  0  0  0
  1  2  2  0
  1  3  1  0
  1 27  1  0
  2  5  1  0
  2 28  1  0
  3  6  2  0
  3 29  1  0
  4  7  1  0
  4  9  2  0
  4 30  1  0
  5  7  2  0
  5  8  1  0
  6  8  1  0
  6 16  1  0
  7 15  1  0
  8 18  2  0
  9 17  1  0
  9 18  1  0
 10 11  1  0
 10 12  1  0
 10 31  1  0
 10 32  1  0
 11 13  1  0
 11 33  1  0
 11 34  1  0
 12 14  1  0
 12 35  1  0
 12 36  1  0
 13 19  1  0
 13 37  1  0
 13 38  1  0
 14 15  1  0
 14 19  1  0
 14 39  1  1
 15 20  1  0
 15 40  1  6
 16 21  1  0
 16 22  1  0
 16 23  1  0
 17 24  1  0
 17 25  1  0
 17 26  1  0
 19 41  1  0
 19 42  1  0
 20 43  1  0
M  CHG  1  19   1
M  END
>  <group_name>  (1) 
RCH

>  <molecule_index>  (1) 
00068

>  <conformer_index>  (1) 
07

>  <method>  (1) 
b3lyp-d3bj

>  <basis>  (1) 
dzvp

>  <program>  (1) 
psi4

>  <initial_energy>  (1) 
-904732.3844984964 kilocalorie / mole

>  <final_energy>  (1) 
-904819.3010670388 kilocalorie / mole

$$$$
