RCH-00786-00
     RDKit          3D

 43 45  0  0  0  0  0  0  0  0999 V2000
   -2.1216   -1.8279   -8.1666 C   0  0  0  0  0  0  0  0  0  0  0  0
   -3.0127   -1.4648   -7.1816 C   0  0  0  0  0  0  0  0  0  0  0  0
   -1.0903   -0.9494   -8.5772 C   0  0  0  0  0  0  0  0  0  0  0  0
   -3.6362    1.5768   -5.0701 C   0  0  0  0  0  0  0  0  0  0  0  0
   -2.9183   -0.1870   -6.5583 C   0  0  0  0  0  0  0  0  0  0  0  0
   -0.9660    0.2959   -8.0027 C   0  0  0  0  0  0  0  0  0  0  0  0
   -3.8004    0.2842   -5.5298 C   0  0  0  0  0  0  0  0  0  0  0  0
   -1.8802    0.7127   -6.9886 C   0  0  0  0  0  0  0  0  0  0  0  0
   -2.5631    2.3636   -5.5538 C   0  0  0  0  0  0  0  0  0  0  0  0
   -2.4582   -2.8262   -2.6966 C   0  0  0  0  0  0  0  0  0  0  0  0
   -3.1837   -2.5246   -1.3817 C   0  0  0  0  0  0  0  0  0  0  0  0
   -3.3329   -2.4636   -3.9214 C   0  0  0  0  0  0  0  0  0  0  0  0
   -3.4499   -1.0213   -1.2464 C   0  0  0  0  0  0  0  0  0  0  0  0
   -4.3347   -1.3406   -3.6146 C   0  0  2  0  0  0  0  0  0  0  0  0
   -4.8759   -0.5443   -4.8311 C   0  0  2  0  0  0  0  0  0  0  0  0
    0.1473    1.2314   -8.4440 C   0  0  0  0  0  0  0  0  0  0  0  0
   -2.3615    3.7448   -4.9443 C   0  0  0  0  0  0  0  0  0  0  0  0
   -1.7137    1.9565   -6.4584 N   0  0  0  0  0  0  0  0  0  0  0  0
   -3.6857   -0.3888   -2.6235 N   0  0  0  0  0  0  0  0  0  0  0  0
   -5.5379   -1.5208   -5.6125 O   0  0  0  0  0  0  0  0  0  0  0  0
    0.9041    0.6535   -9.4070 F   0  0  0  0  0  0  0  0  0  0  0  0
    0.9740    1.5343   -7.4195 F   0  0  0  0  0  0  0  0  0  0  0  0
   -0.3345    2.3823   -8.9519 F   0  0  0  0  0  0  0  0  0  0  0  0
   -3.4897    4.4849   -5.0671 F   0  0  0  0  0  0  0  0  0  0  0  0
   -1.3458    4.4124   -5.4737 F   0  0  0  0  0  0  0  0  0  0  0  0
   -2.1336    3.6055   -3.6007 F   0  0  0  0  0  0  0  0  0  0  0  0
   -2.2101   -2.8001   -8.6423 H   0  0  0  0  0  0  0  0  0  0  0  0
   -3.8034   -2.1441   -6.8921 H   0  0  0  0  0  0  0  0  0  0  0  0
   -0.3966   -1.2575   -9.3516 H   0  0  0  0  0  0  0  0  0  0  0  0
   -4.3305    2.0176   -4.3578 H   0  0  0  0  0  0  0  0  0  0  0  0
   -2.1845   -3.8821   -2.7414 H   0  0  0  0  0  0  0  0  0  0  0  0
   -1.5131   -2.2698   -2.7276 H   0  0  0  0  0  0  0  0  0  0  0  0
   -4.1244   -3.0813   -1.3332 H   0  0  0  0  0  0  0  0  0  0  0  0
   -2.5875   -2.8400   -0.5218 H   0  0  0  0  0  0  0  0  0  0  0  0
   -3.9172   -3.3247   -4.2515 H   0  0  0  0  0  0  0  0  0  0  0  0
   -2.6904   -2.1789   -4.7557 H   0  0  0  0  0  0  0  0  0  0  0  0
   -2.6008   -0.4874   -0.8160 H   0  0  0  0  0  0  0  0  0  0  0  0
   -4.3378   -0.8066   -0.6499 H   0  0  0  0  0  0  0  0  0  0  0  0
   -5.2086   -1.7393   -3.0939 H   0  0  0  0  0  0  0  0  0  0  0  0
   -5.6128    0.1703   -4.4317 H   0  0  0  0  0  0  0  0  0  0  0  0
   -2.7969   -0.0638   -3.0222 H   0  0  0  0  0  0  0  0  0  0  0  0
   -4.2520    0.4583   -2.5110 H   0  0  0  0  0  0  0  0  0  0  0  0
   -6.0726   -1.0780   -6.2927 H   0  0  0  0  0  0  0  0  0  0  0  0
  1  2  2  0
  1  3  1  0
  1 27  1  0
  2  5  1  0
  2 28  1  0
  3  6  2  0
  3 29  1  0
  4  7  1  0
  4  9  2  0
  4 30  1  0
  5  7  2  0
  5  8  1  0
  6  8  1  0
  6 16  1  0
  7 15  1  0
  8 18  2  0
  9 17  1  0
  9 18  1  0
 10 11  1  0
 10 12  1  0
 10 31  1  0
 10 32  1  0
 11 13  1  0
 11 33  1  0
 11 34  1  0
 12 14  1  0
 12 35  1  0
 12 36  1  0
 13 19  1  0
 13 37  1  0
 13 38  1  0
 14 15  1  0
 14 19  1  0
 14 39  1  1
 15 20  1  0
 15 40  1  1
 16 21  1  0
 16 22  1  0
 16 23  1  0
 17 24  1  0
 17 25  1  0
 17 26  1  0
 19 41  1  0
 19 42  1  0
 20 43  1  0
M  CHG  1  19   1
M  END
>  <group_name>  (1) 
RCH

>  <molecule_index>  (1) 
00786

>  <conformer_index>  (1) 
00

>  <method>  (1) 
b3lyp-d3bj

>  <basis>  (1) 
dzvp

>  <program>  (1) 
psi4

>  <initial_energy>  (1) 
-904726.1112597286 kilocalorie / mole

>  <final_energy>  (1) 
-904816.5872304866 kilocalorie / mole

$$$$
