RCH-00068-08
     RDKit          3D

 43 45  0  0  0  0  0  0  0  0999 V2000
    5.5590   -3.4293   -5.1283 C   0  0  0  0  0  0  0  0  0  0  0  0
    4.3100   -3.2099   -4.5906 C   0  0  0  0  0  0  0  0  0  0  0  0
    5.9260   -2.8526   -6.3689 C   0  0  0  0  0  0  0  0  0  0  0  0
    1.2611   -1.2323   -5.4869 C   0  0  0  0  0  0  0  0  0  0  0  0
    3.3688   -2.3925   -5.2740 C   0  0  0  0  0  0  0  0  0  0  0  0
    5.0467   -2.0418   -7.0528 C   0  0  0  0  0  0  0  0  0  0  0  0
    2.0516   -2.1195   -4.7828 C   0  0  0  0  0  0  0  0  0  0  0  0
    3.7515   -1.7799   -6.5151 C   0  0  0  0  0  0  0  0  0  0  0  0
    1.7467   -0.6844   -6.7021 C   0  0  0  0  0  0  0  0  0  0  0  0
   -0.0149   -5.3199   -2.3495 C   0  0  0  0  0  0  0  0  0  0  0  0
   -0.4952   -5.9558   -3.6605 C   0  0  0  0  0  0  0  0  0  0  0  0
   -0.4313   -3.8448   -2.2592 C   0  0  0  0  0  0  0  0  0  0  0  0
   -0.0216   -5.1659   -4.8755 C   0  0  0  0  0  0  0  0  0  0  0  0
    0.0201   -3.0159   -3.4664 C   0  0  1  0  0  0  0  0  0  0  0  0
    1.5515   -2.7829   -3.5108 C   0  0  2  0  0  0  0  0  0  0  0  0
    5.4517   -1.4206   -8.3792 C   0  0  0  0  0  0  0  0  0  0  0  0
    0.8131    0.2302   -7.4853 C   0  0  0  0  0  0  0  0  0  0  0  0
    2.9200   -0.9522   -7.2087 N   0  0  0  0  0  0  0  0  0  0  0  0
   -0.4547   -3.7147   -4.7435 N   0  0  0  0  0  0  0  0  0  0  0  0
    1.9169   -2.0687   -2.3356 O   0  0  0  0  0  0  0  0  0  0  0  0
    5.4340   -0.0745   -8.3269 F   0  0  0  0  0  0  0  0  0  0  0  0
    4.6344   -1.8161   -9.3786 F   0  0  0  0  0  0  0  0  0  0  0  0
    6.7078   -1.7937   -8.7193 F   0  0  0  0  0  0  0  0  0  0  0  0
   -0.3313   -0.4577   -7.7867 F   0  0  0  0  0  0  0  0  0  0  0  0
    1.3407    0.6838   -8.6131 F   0  0  0  0  0  0  0  0  0  0  0  0
    0.4371    1.2830   -6.7180 F   0  0  0  0  0  0  0  0  0  0  0  0
    6.2793   -4.0424   -4.5952 H   0  0  0  0  0  0  0  0  0  0  0  0
    4.0690   -3.6324   -3.6212 H   0  0  0  0  0  0  0  0  0  0  0  0
    6.9118   -3.0434   -6.7784 H   0  0  0  0  0  0  0  0  0  0  0  0
    0.2790   -0.9246   -5.1383 H   0  0  0  0  0  0  0  0  0  0  0  0
   -0.4386   -5.8629   -1.5010 H   0  0  0  0  0  0  0  0  0  0  0  0
    1.0725   -5.4191   -2.2624 H   0  0  0  0  0  0  0  0  0  0  0  0
   -1.5909   -6.0187   -3.6729 H   0  0  0  0  0  0  0  0  0  0  0  0
   -0.1250   -6.9800   -3.7602 H   0  0  0  0  0  0  0  0  0  0  0  0
   -0.0135   -3.3719   -1.3679 H   0  0  0  0  0  0  0  0  0  0  0  0
   -1.5228   -3.7731   -2.1715 H   0  0  0  0  0  0  0  0  0  0  0  0
   -0.4471   -5.5349   -5.8111 H   0  0  0  0  0  0  0  0  0  0  0  0
    1.0656   -5.1590   -4.9708 H   0  0  0  0  0  0  0  0  0  0  0  0
   -0.4889   -2.0489   -3.4605 H   0  0  0  0  0  0  0  0  0  0  0  0
    2.0388   -3.7535   -3.4113 H   0  0  0  0  0  0  0  0  0  0  0  0
   -1.4807   -3.6812   -4.7638 H   0  0  0  0  0  0  0  0  0  0  0  0
   -0.1259   -3.1796   -5.5589 H   0  0  0  0  0  0  0  0  0  0  0  0
    1.9474   -1.1165   -2.5282 H   0  0  0  0  0  0  0  0  0  0  0  0
  1  2  2  0
  1  3  1  0
  1 27  1  0
  2  5  1  0
  2 28  1  0
  3  6  2  0
  3 29  1  0
  4  7  1  0
  4  9  2  0
  4 30  1  0
  5  7  2  0
  5  8  1  0
  6  8  1  0
  6 16  1  0
  7 15  1  0
  8 18  2  0
  9 17  1  0
  9 18  1  0
 10 11  1  0
 10 12  1  0
 10 31  1  0
 10 32  1  0
 11 13  1  0
 11 33  1  0
 11 34  1  0
 12 14  1  0
 12 35  1  0
 12 36  1  0
 13 19  1  0
 13 37  1  0
 13 38  1  0
 14 15  1  0
 14 19  1  0
 14 39  1  1
 15 20  1  0
 15 40  1  1
 16 21  1  0
 16 22  1  0
 16 23  1  0
 17 24  1  0
 17 25  1  0
 17 26  1  0
 19 41  1  0
 19 42  1  0
 20 43  1  0
M  CHG  1  19   1
M  END
>  <group_name>  (1) 
RCH

>  <molecule_index>  (1) 
00068

>  <conformer_index>  (1) 
08

>  <method>  (1) 
b3lyp-d3bj

>  <basis>  (1) 
dzvp

>  <program>  (1) 
psi4

>  <initial_energy>  (1) 
-904774.9406095861 kilocalorie / mole

>  <final_energy>  (1) 
-904820.6330450698 kilocalorie / mole

$$$$
