RCH-00786-06
     RDKit          3D

 43 45  0  0  0  0  0  0  0  0999 V2000
   -2.3263   -1.7433   -8.2322 C   0  0  0  0  0  0  0  0  0  0  0  0
   -1.9745   -1.6939   -6.9008 C   0  0  0  0  0  0  0  0  0  0  0  0
   -2.5488   -0.5530   -8.9673 C   0  0  0  0  0  0  0  0  0  0  0  0
   -1.2988    0.9676   -4.3427 C   0  0  0  0  0  0  0  0  0  0  0  0
   -1.8221   -0.4421   -6.2318 C   0  0  0  0  0  0  0  0  0  0  0  0
   -2.3877    0.6752   -8.3674 C   0  0  0  0  0  0  0  0  0  0  0  0
   -1.4897   -0.3036   -4.8446 C   0  0  0  0  0  0  0  0  0  0  0  0
   -2.0098    0.7632   -6.9909 C   0  0  0  0  0  0  0  0  0  0  0  0
   -1.4851    2.0832   -5.1926 C   0  0  0  0  0  0  0  0  0  0  0  0
   -4.7492   -0.8445   -1.9086 C   0  0  0  0  0  0  0  0  0  0  0  0
   -5.3986   -2.1774   -2.2972 C   0  0  0  0  0  0  0  0  0  0  0  0
   -3.2174   -0.8836   -2.1271 C   0  0  0  0  0  0  0  0  0  0  0  0
   -5.2220   -2.4480   -3.7976 C   0  0  0  0  0  0  0  0  0  0  0  0
   -2.8127   -1.8252   -3.2733 C   0  0  2  0  0  0  0  0  0  0  0  0
   -1.4302   -1.5214   -3.9342 C   0  0  2  0  0  0  0  0  0  0  0  0
   -2.6121    1.9494   -9.1680 C   0  0  0  0  0  0  0  0  0  0  0  0
   -1.3477    3.4976   -4.6324 C   0  0  0  0  0  0  0  0  0  0  0  0
   -1.8462    1.9969   -6.4487 N   0  0  0  0  0  0  0  0  0  0  0  0
   -3.9320   -1.8036   -4.3054 N   0  0  0  0  0  0  0  0  0  0  0  0
   -0.4536   -1.4854   -2.9169 O   0  0  0  0  0  0  0  0  0  0  0  0
   -2.9723    1.6556  -10.4397 F   0  0  0  0  0  0  0  0  0  0  0  0
   -1.5006    2.7035   -9.2283 F   0  0  0  0  0  0  0  0  0  0  0  0
   -3.6054    2.6924   -8.6350 F   0  0  0  0  0  0  0  0  0  0  0  0
   -0.6546    3.4806   -3.4654 F   0  0  0  0  0  0  0  0  0  0  0  0
   -0.7242    4.3161   -5.4805 F   0  0  0  0  0  0  0  0  0  0  0  0
   -2.5730    4.0065   -4.3638 F   0  0  0  0  0  0  0  0  0  0  0  0
   -2.4130   -2.7021   -8.7347 H   0  0  0  0  0  0  0  0  0  0  0  0
   -1.7434   -2.6281   -6.3960 H   0  0  0  0  0  0  0  0  0  0  0  0
   -2.8289   -0.6109  -10.0132 H   0  0  0  0  0  0  0  0  0  0  0  0
   -1.0050    1.1501   -3.3148 H   0  0  0  0  0  0  0  0  0  0  0  0
   -4.9629   -0.6125   -0.8634 H   0  0  0  0  0  0  0  0  0  0  0  0
   -5.1983   -0.0311   -2.4923 H   0  0  0  0  0  0  0  0  0  0  0  0
   -4.9599   -2.9916   -1.7128 H   0  0  0  0  0  0  0  0  0  0  0  0
   -6.4683   -2.1716   -2.0747 H   0  0  0  0  0  0  0  0  0  0  0  0
   -2.8578    0.1310   -2.3200 H   0  0  0  0  0  0  0  0  0  0  0  0
   -2.7142   -1.2407   -1.2264 H   0  0  0  0  0  0  0  0  0  0  0  0
   -6.0279   -2.0173   -4.3949 H   0  0  0  0  0  0  0  0  0  0  0  0
   -5.1487   -3.5128   -4.0246 H   0  0  0  0  0  0  0  0  0  0  0  0
   -2.7770   -2.8571   -2.9168 H   0  0  0  0  0  0  0  0  0  0  0  0
   -1.1523   -2.3946   -4.5261 H   0  0  0  0  0  0  0  0  0  0  0  0
   -4.1102   -0.8259   -4.5606 H   0  0  0  0  0  0  0  0  0  0  0  0
   -3.6385   -2.2520   -5.1817 H   0  0  0  0  0  0  0  0  0  0  0  0
   -0.4395   -0.6241   -2.4707 H   0  0  0  0  0  0  0  0  0  0  0  0
  1  2  2  0
  1  3  1  0
  1 27  1  0
  2  5  1  0
  2 28  1  0
  3  6  2  0
  3 29  1  0
  4  7  1  0
  4  9  2  0
  4 30  1  0
  5  7  2  0
  5  8  1  0
  6  8  1  0
  6 16  1  0
  7 15  1  0
  8 18  2  0
  9 17  1  0
  9 18  1  0
 10 11  1  0
 10 12  1  0
 10 31  1  0
 10 32  1  0
 11 13  1  0
 11 33  1  0
 11 34  1  0
 12 14  1  0
 12 35  1  0
 12 36  1  0
 13 19  1  0
 13 37  1  0
 13 38  1  0
 14 15  1  0
 14 19  1  0
 14 39  1  1
 15 20  1  0
 15 40  1  6
 16 21  1  0
 16 22  1  0
 16 23  1  0
 17 24  1  0
 17 25  1  0
 17 26  1  0
 19 41  1  0
 19 42  1  0
 20 43  1  0
M  CHG  1  19   1
M  END
>  <group_name>  (1) 
RCH

>  <molecule_index>  (1) 
00786

>  <conformer_index>  (1) 
06

>  <method>  (1) 
b3lyp-d3bj

>  <basis>  (1) 
dzvp

>  <program>  (1) 
psi4

>  <initial_energy>  (1) 
-904747.2214463964 kilocalorie / mole

>  <final_energy>  (1) 
-904813.3839737223 kilocalorie / mole

$$$$
