RCH-00337-05
     RDKit          3D

 43 45  0  0  0  0  0  0  0  0999 V2000
    1.6545   -1.4209   -6.3197 C   0  0  0  0  0  0  0  0  0  0  0  0
    0.6668   -0.5629   -5.8872 C   0  0  0  0  0  0  0  0  0  0  0  0
    1.3486   -2.5183   -7.1604 C   0  0  0  0  0  0  0  0  0  0  0  0
   -3.0379   -0.2085   -6.3696 C   0  0  0  0  0  0  0  0  0  0  0  0
   -0.6861   -0.7694   -6.2804 C   0  0  0  0  0  0  0  0  0  0  0  0
    0.0540   -2.7420   -7.5750 C   0  0  0  0  0  0  0  0  0  0  0  0
   -1.7814    0.0606   -5.8677 C   0  0  0  0  0  0  0  0  0  0  0  0
   -0.9940   -1.8707   -7.1514 C   0  0  0  0  0  0  0  0  0  0  0  0
   -3.2214   -1.3256   -7.2237 C   0  0  0  0  0  0  0  0  0  0  0  0
   -2.9581    1.9889   -1.9725 C   0  0  0  0  0  0  0  0  0  0  0  0
   -3.7967    0.7406   -1.6718 C   0  0  0  0  0  0  0  0  0  0  0  0
   -1.5029    1.6114   -2.2791 C   0  0  0  0  0  0  0  0  0  0  0  0
   -3.7291   -0.2623   -2.8169 C   0  0  0  0  0  0  0  0  0  0  0  0
   -1.3697    0.5899   -3.4116 C   0  0  2  0  0  0  0  0  0  0  0  0
   -1.6558    1.1615   -4.8247 C   0  0  1  0  0  0  0  0  0  0  0  0
   -0.2650   -3.9173   -8.4841 C   0  0  0  0  0  0  0  0  0  0  0  0
   -4.6370   -1.6416   -7.6910 C   0  0  0  0  0  0  0  0  0  0  0  0
   -2.2589   -2.1305   -7.5879 N   0  0  0  0  0  0  0  0  0  0  0  0
   -2.2790   -0.6026   -3.1262 N   0  0  0  0  0  0  0  0  0  0  0  0
   -0.5817    2.0669   -5.0315 O   0  0  0  0  0  0  0  0  0  0  0  0
    0.8578   -4.6155   -8.7756 F   0  0  0  0  0  0  0  0  0  0  0  0
   -1.1249   -4.7766   -7.8946 F   0  0  0  0  0  0  0  0  0  0  0  0
   -0.8021   -3.5167   -9.6521 F   0  0  0  0  0  0  0  0  0  0  0  0
   -4.6935   -2.6502   -8.5510 F   0  0  0  0  0  0  0  0  0  0  0  0
   -5.4030   -1.9565   -6.6035 F   0  0  0  0  0  0  0  0  0  0  0  0
   -5.1992   -0.5464   -8.2572 F   0  0  0  0  0  0  0  0  0  0  0  0
    2.6862   -1.2487   -6.0279 H   0  0  0  0  0  0  0  0  0  0  0  0
    0.9276    0.3021   -5.2899 H   0  0  0  0  0  0  0  0  0  0  0  0
    2.1414   -3.1809   -7.4896 H   0  0  0  0  0  0  0  0  0  0  0  0
   -3.8902    0.4186   -6.1222 H   0  0  0  0  0  0  0  0  0  0  0  0
   -2.9805    2.6649   -1.1143 H   0  0  0  0  0  0  0  0  0  0  0  0
   -3.3992    2.5412   -2.8099 H   0  0  0  0  0  0  0  0  0  0  0  0
   -4.8481    0.9989   -1.5167 H   0  0  0  0  0  0  0  0  0  0  0  0
   -3.4524    0.2653   -0.7444 H   0  0  0  0  0  0  0  0  0  0  0  0
   -0.9158    2.4869   -2.5644 H   0  0  0  0  0  0  0  0  0  0  0  0
   -1.0324    1.1988   -1.3776 H   0  0  0  0  0  0  0  0  0  0  0  0
   -4.1565    0.1353   -3.7373 H   0  0  0  0  0  0  0  0  0  0  0  0
   -4.2275   -1.2064   -2.5873 H   0  0  0  0  0  0  0  0  0  0  0  0
   -0.3606    0.1738   -3.4292 H   0  0  0  0  0  0  0  0  0  0  0  0
   -2.6069    1.7078   -4.8048 H   0  0  0  0  0  0  0  0  0  0  0  0
   -1.8891   -1.1101   -2.3242 H   0  0  0  0  0  0  0  0  0  0  0  0
   -2.2432   -1.2459   -3.9286 H   0  0  0  0  0  0  0  0  0  0  0  0
   -0.7200    2.5412   -5.8684 H   0  0  0  0  0  0  0  0  0  0  0  0
  1  2  2  0
  1  3  1  0
  1 27  1  0
  2  5  1  0
  2 28  1  0
  3  6  2  0
  3 29  1  0
  4  7  1  0
  4  9  2  0
  4 30  1  0
  5  7  2  0
  5  8  1  0
  6  8  1  0
  6 16  1  0
  7 15  1  0
  8 18  2  0
  9 17  1  0
  9 18  1  0
 10 11  1  0
 10 12  1  0
 10 31  1  0
 10 32  1  0
 11 13  1  0
 11 33  1  0
 11 34  1  0
 12 14  1  0
 12 35  1  0
 12 36  1  0
 13 19  1  0
 13 37  1  0
 13 38  1  0
 14 15  1  0
 14 19  1  0
 14 39  1  6
 15 20  1  0
 15 40  1  1
 16 21  1  0
 16 22  1  0
 16 23  1  0
 17 24  1  0
 17 25  1  0
 17 26  1  0
 19 41  1  0
 19 42  1  0
 20 43  1  0
M  CHG  1  19   1
M  END
>  <group_name>  (1) 
RCH

>  <molecule_index>  (1) 
00337

>  <conformer_index>  (1) 
05

>  <method>  (1) 
b3lyp-d3bj

>  <basis>  (1) 
dzvp

>  <program>  (1) 
psi4

>  <initial_energy>  (1) 
-904753.7364841413 kilocalorie / mole

>  <final_energy>  (1) 
-904823.6183582793 kilocalorie / mole

$$$$
