RCH-01399-03
     RDKit          3D

 44 48  0  0  0  0  0  0  0  0999 V2000
   -1.9217   -0.3987    1.4006 C   0  0  0  0  0  0  0  0  0  0  0  0
   -1.4277   -1.0533    2.5304 C   0  0  0  0  0  0  0  0  0  0  0  0
    0.3290    3.8526   -0.4522 C   0  0  0  0  0  0  0  0  0  0  0  0
    1.5941    4.1658    0.0429 C   0  0  0  0  0  0  0  0  0  0  0  0
    0.8537   -0.7045    1.7350 C   0  0  0  0  0  0  0  0  0  0  0  0
    1.7661    1.4642   -2.3707 C   0  0  0  0  0  0  0  0  0  0  0  0
   -0.1868    2.8971    1.7116 C   0  0  0  0  0  0  0  0  0  0  0  0
    0.3576   -0.0324    0.6104 C   0  0  0  0  0  0  0  0  0  0  0  0
    0.6703    0.9060   -1.6767 C   0  0  0  0  0  0  0  0  0  0  0  0
   -1.0448    0.1176    0.4449 C   0  0  0  0  0  0  0  0  0  0  0  0
   -0.0482   -1.1911    2.6722 C   0  0  0  0  0  0  0  0  0  0  0  0
   -0.5558    3.1851    0.3913 C   0  0  0  0  0  0  0  0  0  0  0  0
    1.1785    0.5436   -0.4358 C   0  0  0  0  0  0  0  0  0  0  0  0
    1.8950    3.7682    1.3468 C   0  0  0  0  0  0  0  0  0  0  0  0
   -1.1288   -0.7565   -4.0833 C   0  0  0  0  0  0  0  0  0  0  0  0
   -2.4173   -0.8333   -3.2905 C   0  0  0  0  0  0  0  0  0  0  0  0
   -0.7931    0.7089   -1.9610 C   0  0  1  0  0  0  0  0  0  0  0  0
   -1.1043   -0.6409   -2.5751 C   0  0  0  0  0  0  0  0  0  0  0  0
    3.3042    3.9128    1.8937 C   0  0  0  0  0  0  0  0  0  0  0  0
    1.0337    3.1736    2.1780 N   0  0  0  0  0  0  0  0  0  0  0  0
    2.8721    1.4682   -1.6124 N   0  0  0  0  0  0  0  0  0  0  0  0
    2.4975    0.8930   -0.4439 N   0  0  0  0  0  0  0  0  0  0  0  0
   -1.5556    0.8552   -0.6773 N   0  0  0  0  0  0  0  0  0  0  0  0
   -2.3667    3.1143   -1.5472 O   0  0  0  0  0  0  0  0  0  0  0  0
   -3.0185    2.3405    0.8047 O   0  0  0  0  0  0  0  0  0  0  0  0
    0.4346   -1.8365    3.7601 F   0  0  0  0  0  0  0  0  0  0  0  0
    3.9201    2.6925    1.9181 F   0  0  0  0  0  0  0  0  0  0  0  0
    3.3279    4.3965    3.1450 F   0  0  0  0  0  0  0  0  0  0  0  0
    4.0637    4.7202    1.1194 F   0  0  0  0  0  0  0  0  0  0  0  0
   -2.0497    2.4549   -0.2804 S   0  0  0  0  0  0  0  0  0  0  0  0
   -2.9880   -0.2630    1.2610 H   0  0  0  0  0  0  0  0  0  0  0  0
   -2.0911   -1.4587    3.2874 H   0  0  0  0  0  0  0  0  0  0  0  0
    0.0429    4.0893   -1.4716 H   0  0  0  0  0  0  0  0  0  0  0  0
    2.3333    4.6610   -0.5752 H   0  0  0  0  0  0  0  0  0  0  0  0
    1.9179   -0.8554    1.8881 H   0  0  0  0  0  0  0  0  0  0  0  0
    1.8074    1.8680   -3.3748 H   0  0  0  0  0  0  0  0  0  0  0  0
   -0.8842    2.4183    2.3930 H   0  0  0  0  0  0  0  0  0  0  0  0
   -0.9444    0.1432   -4.6645 H   0  0  0  0  0  0  0  0  0  0  0  0
   -0.7378   -1.6656   -4.5296 H   0  0  0  0  0  0  0  0  0  0  0  0
   -2.9102   -1.7963   -3.1999 H   0  0  0  0  0  0  0  0  0  0  0  0
   -3.0912    0.0177   -3.3292 H   0  0  0  0  0  0  0  0  0  0  0  0
   -1.1719    1.4876   -2.6242 H   0  0  0  0  0  0  0  0  0  0  0  0
   -0.7039   -1.4902   -2.0272 H   0  0  0  0  0  0  0  0  0  0  0  0
    3.1556    0.8853    0.3259 H   0  0  0  0  0  0  0  0  0  0  0  0
  1  2  2  0
  1 10  1  0
  1 31  1  0
  2 11  1  0
  2 32  1  0
  3  4  2  0
  3 12  1  0
  3 33  1  0
  4 14  1  0
  4 34  1  0
  5  8  1  0
  5 11  2  0
  5 35  1  0
  6  9  1  0
  6 21  2  0
  6 36  1  0
  7 12  2  0
  7 20  1  0
  7 37  1  0
  8 10  2  0
  8 13  1  0
  9 13  2  0
  9 17  1  0
 10 23  1  0
 11 26  1  0
 12 30  1  0
 13 22  1  0
 14 19  1  0
 14 20  2  0
 15 16  1  0
 15 18  1  0
 15 38  1  0
 15 39  1  0
 16 18  1  0
 16 40  1  0
 16 41  1  0
 17 18  1  0
 17 23  1  0
 17 42  1  6
 18 43  1  0
 19 27  1  0
 19 28  1  0
 19 29  1  0
 21 22  1  0
 22 44  1  0
 23 30  1  0
 24 30  2  0
 25 30  2  0
M  END
>  <group_name>  (1) 
RCH

>  <molecule_index>  (1) 
01399

>  <conformer_index>  (1) 
03

>  <method>  (1) 
b3lyp-d3bj

>  <basis>  (1) 
dzvp

>  <program>  (1) 
psi4

>  <initial_energy>  (1) 
-1191967.9327803769 kilocalorie / mole

>  <final_energy>  (1) 
-1192043.0560035193 kilocalorie / mole

$$$$
