RCH-00337-06
     RDKit          3D

 43 45  0  0  0  0  0  0  0  0999 V2000
    1.2924   -0.5030   -6.0812 C   0  0  0  0  0  0  0  0  0  0  0  0
    0.0387   -0.0513   -5.7363 C   0  0  0  0  0  0  0  0  0  0  0  0
    1.4592   -1.5192   -7.0534 C   0  0  0  0  0  0  0  0  0  0  0  0
   -3.5040   -0.8140   -6.7401 C   0  0  0  0  0  0  0  0  0  0  0  0
   -1.1243   -0.6009   -6.3503 C   0  0  0  0  0  0  0  0  0  0  0  0
    0.3631   -2.0758   -7.6718 C   0  0  0  0  0  0  0  0  0  0  0  0
   -2.4690   -0.2041   -6.0598 C   0  0  0  0  0  0  0  0  0  0  0  0
   -0.9544   -1.6346   -7.3370 C   0  0  0  0  0  0  0  0  0  0  0  0
   -3.2133   -1.8293   -7.6797 C   0  0  0  0  0  0  0  0  0  0  0  0
   -1.0515    0.2854   -2.1215 C   0  0  0  0  0  0  0  0  0  0  0  0
   -1.8216    0.9012   -0.9295 C   0  0  0  0  0  0  0  0  0  0  0  0
   -1.9670   -0.5960   -2.9808 C   0  0  0  0  0  0  0  0  0  0  0  0
   -3.3161    1.0666   -1.2355 C   0  0  0  0  0  0  0  0  0  0  0  0
   -3.1187    0.1953   -3.6289 C   0  0  2  0  0  0  0  0  0  0  0  0
   -2.8773    0.8285   -5.0195 C   0  0  1  0  0  0  0  0  0  0  0  0
    0.5490   -3.1660   -8.7141 C   0  0  0  0  0  0  0  0  0  0  0  0
   -4.3572   -2.5561   -8.3806 C   0  0  0  0  0  0  0  0  0  0  0  0
   -2.0006   -2.2278   -7.9685 N   0  0  0  0  0  0  0  0  0  0  0  0
   -3.5020    1.3615   -2.7096 N   0  0  0  0  0  0  0  0  0  0  0  0
   -1.9769    1.9206   -4.8045 O   0  0  0  0  0  0  0  0  0  0  0  0
    1.8651   -3.4363   -8.8936 F   0  0  0  0  0  0  0  0  0  0  0  0
    0.0511   -2.8025   -9.9124 F   0  0  0  0  0  0  0  0  0  0  0  0
   -0.0439   -4.3186   -8.3401 F   0  0  0  0  0  0  0  0  0  0  0  0
   -4.7068   -3.6593   -7.6764 F   0  0  0  0  0  0  0  0  0  0  0  0
   -4.0414   -2.9282   -9.6211 F   0  0  0  0  0  0  0  0  0  0  0  0
   -5.4561   -1.7576   -8.4410 F   0  0  0  0  0  0  0  0  0  0  0  0
    2.1707   -0.0733   -5.6086 H   0  0  0  0  0  0  0  0  0  0  0  0
   -0.0620    0.7367   -5.0026 H   0  0  0  0  0  0  0  0  0  0  0  0
    2.4558   -1.8584   -7.3128 H   0  0  0  0  0  0  0  0  0  0  0  0
   -4.5370   -0.5219   -6.5762 H   0  0  0  0  0  0  0  0  0  0  0  0
   -0.2157   -0.3120   -1.7517 H   0  0  0  0  0  0  0  0  0  0  0  0
   -0.6168    1.0767   -2.7381 H   0  0  0  0  0  0  0  0  0  0  0  0
   -1.3887    1.8680   -0.6579 H   0  0  0  0  0  0  0  0  0  0  0  0
   -1.7417    0.2627   -0.0459 H   0  0  0  0  0  0  0  0  0  0  0  0
   -1.4021   -1.0983   -3.7657 H   0  0  0  0  0  0  0  0  0  0  0  0
   -2.3953   -1.3910   -2.3621 H   0  0  0  0  0  0  0  0  0  0  0  0
   -3.7709    1.8879   -0.6788 H   0  0  0  0  0  0  0  0  0  0  0  0
   -3.8879    0.1584   -1.0369 H   0  0  0  0  0  0  0  0  0  0  0  0
   -4.0063   -0.4363   -3.7062 H   0  0  0  0  0  0  0  0  0  0  0  0
   -3.8444    1.2354   -5.3497 H   0  0  0  0  0  0  0  0  0  0  0  0
   -4.4695    1.6432   -2.8966 H   0  0  0  0  0  0  0  0  0  0  0  0
   -2.9067    2.1561   -2.9927 H   0  0  0  0  0  0  0  0  0  0  0  0
   -1.8611    2.4155   -5.6334 H   0  0  0  0  0  0  0  0  0  0  0  0
  1  2  2  0
  1  3  1  0
  1 27  1  0
  2  5  1  0
  2 28  1  0
  3  6  2  0
  3 29  1  0
  4  7  1  0
  4  9  2  0
  4 30  1  0
  5  7  2  0
  5  8  1  0
  6  8  1  0
  6 16  1  0
  7 15  1  0
  8 18  2  0
  9 17  1  0
  9 18  1  0
 10 11  1  0
 10 12  1  0
 10 31  1  0
 10 32  1  0
 11 13  1  0
 11 33  1  0
 11 34  1  0
 12 14  1  0
 12 35  1  0
 12 36  1  0
 13 19  1  0
 13 37  1  0
 13 38  1  0
 14 15  1  0
 14 19  1  0
 14 39  1  6
 15 20  1  0
 15 40  1  6
 16 21  1  0
 16 22  1  0
 16 23  1  0
 17 24  1  0
 17 25  1  0
 17 26  1  0
 19 41  1  0
 19 42  1  0
 20 43  1  0
M  CHG  1  19   1
M  END
>  <group_name>  (1) 
RCH

>  <molecule_index>  (1) 
00337

>  <conformer_index>  (1) 
06

>  <method>  (1) 
b3lyp-d3bj

>  <basis>  (1) 
dzvp

>  <program>  (1) 
psi4

>  <initial_energy>  (1) 
-904750.5697482859 kilocalorie / mole

>  <final_energy>  (1) 
-904819.9978304897 kilocalorie / mole

$$$$
