RCH-01195-05
     RDKit          3D

 28 28  0  0  0  0  0  0  0  0999 V2000
   -1.0993   -2.2511    0.8502 C   0  0  0  0  0  0  0  0  0  0  0  0
    1.9848    1.2084    2.6628 C   0  0  0  0  0  0  0  0  0  0  0  0
    2.2445    1.2333    4.0336 C   0  0  0  0  0  0  0  0  0  0  0  0
   -0.3240    1.6084    3.1849 C   0  0  0  0  0  0  0  0  0  0  0  0
    0.6743    1.4083    2.2185 C   0  0  0  0  0  0  0  0  0  0  0  0
    1.1749    1.4634    4.8983 C   0  0  0  0  0  0  0  0  0  0  0  0
    1.2143    2.2525   -0.1362 C   0  0  0  0  0  0  0  0  0  0  0  0
   -0.2409   -0.3434   -1.5283 C   0  0  0  0  0  0  0  0  0  0  0  0
    0.3084    1.4018    0.7568 C   0  0  1  0  0  0  0  0  0  0  0  0
    1.3771    1.5257    6.4037 C   0  0  0  0  0  0  0  0  0  0  0  0
   -1.4746   -3.3421    0.6451 N   0  0  0  0  0  0  0  0  0  0  0  0
   -0.0861    1.6478    4.4949 N   0  0  0  0  0  0  0  0  0  0  0  0
   -0.7415   -0.9895    1.1175 N   0  0  0  0  0  0  0  0  0  0  0  0
    1.7576   -0.8384    0.1644 O   0  0  0  0  0  0  0  0  0  0  0  0
    0.6406    0.5948    7.0427 F   0  0  0  0  0  0  0  0  0  0  0  0
    2.6762    1.3162    6.7368 F   0  0  0  0  0  0  0  0  0  0  0  0
    1.0265    2.7348    6.8960 F   0  0  0  0  0  0  0  0  0  0  0  0
    0.3627   -0.3508    0.1834 S   0  0  1  0  0  0  0  0  0  0  0  0
    2.7885    1.0145    1.9600 H   0  0  0  0  0  0  0  0  0  0  0  0
    3.2455    1.0759    4.4185 H   0  0  0  0  0  0  0  0  0  0  0  0
   -1.3608    1.7408    2.8797 H   0  0  0  0  0  0  0  0  0  0  0  0
    1.2480    3.2674    0.2678 H   0  0  0  0  0  0  0  0  0  0  0  0
    0.8344    2.3097   -1.1596 H   0  0  0  0  0  0  0  0  0  0  0  0
    2.2327    1.8590   -0.1652 H   0  0  0  0  0  0  0  0  0  0  0  0
   -0.4361   -1.3895   -1.7756 H   0  0  0  0  0  0  0  0  0  0  0  0
    0.5378    0.0605   -2.1748 H   0  0  0  0  0  0  0  0  0  0  0  0
   -1.1647    0.2348   -1.5791 H   0  0  0  0  0  0  0  0  0  0  0  0
   -0.7406    1.6842    0.6401 H   0  0  0  0  0  0  0  0  0  0  0  0
  1 11  3  0
  1 13  1  0
  2  3  2  0
  2  5  1  0
  2 19  1  0
  3  6  1  0
  3 20  1  0
  4  5  2  0
  4 12  1  0
  4 21  1  0
  5  9  1  0
  6 10  1  0
  6 12  2  0
  7  9  1  0
  7 22  1  0
  7 23  1  0
  7 24  1  0
 18  8  1  6
  8 25  1  0
  8 26  1  0
  8 27  1  0
  9 18  1  0
  9 28  1  1
 10 15  1  0
 10 16  1  0
 10 17  1  0
 13 18  2  0
 14 18  2  0
M  END
>  <group_name>  (1) 
RCH

>  <molecule_index>  (1) 
01195

>  <conformer_index>  (1) 
05

>  <method>  (1) 
b3lyp-d3bj

>  <basis>  (1) 
dzvp

>  <program>  (1) 
psi4

>  <initial_energy>  (1) 
-830985.0656830228 kilocalorie / mole

>  <final_energy>  (1) 
-831039.0799975612 kilocalorie / mole

$$$$
