RCH-01195-04
     RDKit          3D

 28 28  0  0  0  0  0  0  0  0999 V2000
   -1.6841    1.3882   -1.6855 C   0  0  0  0  0  0  0  0  0  0  0  0
    0.1030    1.7965    3.1901 C   0  0  0  0  0  0  0  0  0  0  0  0
    0.5555    1.5989    4.4935 C   0  0  0  0  0  0  0  0  0  0  0  0
    2.0964    0.7083    2.4202 C   0  0  0  0  0  0  0  0  0  0  0  0
    0.8819    1.3453    2.1164 C   0  0  0  0  0  0  0  0  0  0  0  0
    1.7761    0.9453    4.6696 C   0  0  0  0  0  0  0  0  0  0  0  0
    1.4647    1.5172   -0.4017 C   0  0  0  0  0  0  0  0  0  0  0  0
   -0.1166   -1.3786    0.5348 C   0  0  0  0  0  0  0  0  0  0  0  0
    0.4043    1.5134    0.6982 C   0  0  1  0  0  0  0  0  0  0  0  0
    2.3348    0.6748    6.0572 C   0  0  0  0  0  0  0  0  0  0  0  0
   -2.0152    2.3950   -2.1867 N   0  0  0  0  0  0  0  0  0  0  0  0
    2.5383    0.5074    3.6638 N   0  0  0  0  0  0  0  0  0  0  0  0
   -1.2657    0.2199   -1.1847 N   0  0  0  0  0  0  0  0  0  0  0  0
   -1.9527    0.3860    1.3922 O   0  0  0  0  0  0  0  0  0  0  0  0
    3.5499    1.2380    6.2205 F   0  0  0  0  0  0  0  0  0  0  0  0
    2.4644   -0.6509    6.2837 F   0  0  0  0  0  0  0  0  0  0  0  0
    1.5222    1.1732    7.0220 F   0  0  0  0  0  0  0  0  0  0  0  0
   -0.9093    0.2205    0.3606 S   0  0  1  0  0  0  0  0  0  0  0  0
   -0.8506    2.2819    3.0069 H   0  0  0  0  0  0  0  0  0  0  0  0
   -0.0222    1.9367    5.3462 H   0  0  0  0  0  0  0  0  0  0  0  0
    2.7502    0.3485    1.6291 H   0  0  0  0  0  0  0  0  0  0  0  0
    1.9955    0.5657   -0.4829 H   0  0  0  0  0  0  0  0  0  0  0  0
    1.0136    1.7411   -1.3690 H   0  0  0  0  0  0  0  0  0  0  0  0
    2.2004    2.2948   -0.1770 H   0  0  0  0  0  0  0  0  0  0  0  0
    0.7309   -1.4467   -0.1460 H   0  0  0  0  0  0  0  0  0  0  0  0
   -0.8795   -2.1116    0.2682 H   0  0  0  0  0  0  0  0  0  0  0  0
    0.1809   -1.4909    1.5769 H   0  0  0  0  0  0  0  0  0  0  0  0
   -0.2070    2.4193    0.6203 H   0  0  0  0  0  0  0  0  0  0  0  0
  1 11  3  0
  1 13  1  0
  2  3  2  0
  2  5  1  0
  2 19  1  0
  3  6  1  0
  3 20  1  0
  4  5  2  0
  4 12  1  0
  4 21  1  0
  5  9  1  0
  6 10  1  0
  6 12  2  0
  7  9  1  0
  7 22  1  0
  7 23  1  0
  7 24  1  0
 18  8  1  1
  8 25  1  0
  8 26  1  0
  8 27  1  0
  9 18  1  0
  9 28  1  1
 10 15  1  0
 10 16  1  0
 10 17  1  0
 13 18  2  0
 14 18  2  0
M  END
>  <group_name>  (1) 
RCH

>  <molecule_index>  (1) 
01195

>  <conformer_index>  (1) 
04

>  <method>  (1) 
b3lyp-d3bj

>  <basis>  (1) 
dzvp

>  <program>  (1) 
psi4

>  <initial_energy>  (1) 
-830984.4073296332 kilocalorie / mole

>  <final_energy>  (1) 
-831040.8531149415 kilocalorie / mole

$$$$
