RCH-00068-05
     RDKit          3D

 43 45  0  0  0  0  0  0  0  0999 V2000
    5.5524   -3.4187   -5.2231 C   0  0  0  0  0  0  0  0  0  0  0  0
    4.3990   -3.1097   -4.5371 C   0  0  0  0  0  0  0  0  0  0  0  0
    5.7708   -2.9248   -6.5319 C   0  0  0  0  0  0  0  0  0  0  0  0
    1.3220   -1.0567   -5.1476 C   0  0  0  0  0  0  0  0  0  0  0  0
    3.4052   -2.2811   -5.1289 C   0  0  0  0  0  0  0  0  0  0  0  0
    4.8325   -2.1214   -7.1411 C   0  0  0  0  0  0  0  0  0  0  0  0
    2.1867   -1.9002   -4.4814 C   0  0  0  0  0  0  0  0  0  0  0  0
    3.6286   -1.7780   -6.4557 C   0  0  0  0  0  0  0  0  0  0  0  0
    1.6371   -0.6454   -6.4665 C   0  0  0  0  0  0  0  0  0  0  0  0
    0.3031   -5.7941   -4.4744 C   0  0  0  0  0  0  0  0  0  0  0  0
   -0.9003   -5.7606   -3.5257 C   0  0  0  0  0  0  0  0  0  0  0  0
    1.4490   -4.8867   -3.9655 C   0  0  0  0  0  0  0  0  0  0  0  0
   -1.5150   -4.3549   -3.4755 C   0  0  0  0  0  0  0  0  0  0  0  0
    0.9191   -3.6919   -3.1610 C   0  0  1  0  0  0  0  0  0  0  0  0
    1.7984   -2.4231   -3.1060 C   0  0  2  0  0  0  0  0  0  0  0  0
    5.0746   -1.5944   -8.5459 C   0  0  0  0  0  0  0  0  0  0  0  0
    0.6275    0.2321   -7.1964 C   0  0  0  0  0  0  0  0  0  0  0  0
    2.7271   -0.9865   -7.1007 N   0  0  0  0  0  0  0  0  0  0  0  0
   -0.4419   -3.2933   -3.7017 N   0  0  0  0  0  0  0  0  0  0  0  0
    0.9869   -1.4955   -2.3800 O   0  0  0  0  0  0  0  0  0  0  0  0
    5.0926   -0.2475   -8.5770 F   0  0  0  0  0  0  0  0  0  0  0  0
    6.2691   -2.0227   -9.0186 F   0  0  0  0  0  0  0  0  0  0  0  0
    4.1289   -2.0260   -9.4065 F   0  0  0  0  0  0  0  0  0  0  0  0
    0.4976    1.4239   -6.5657 F   0  0  0  0  0  0  0  0  0  0  0  0
   -0.6010   -0.3690   -7.1507 F   0  0  0  0  0  0  0  0  0  0  0  0
    0.9405    0.4486   -8.4675 F   0  0  0  0  0  0  0  0  0  0  0  0
    6.3091   -4.0437   -4.7586 H   0  0  0  0  0  0  0  0  0  0  0  0
    4.2674   -3.5024   -3.5345 H   0  0  0  0  0  0  0  0  0  0  0  0
    6.6854   -3.1786   -7.0563 H   0  0  0  0  0  0  0  0  0  0  0  0
    0.4220   -0.6789   -4.6733 H   0  0  0  0  0  0  0  0  0  0  0  0
    0.6684   -6.8170   -4.5844 H   0  0  0  0  0  0  0  0  0  0  0  0
   -0.0105   -5.4780   -5.4771 H   0  0  0  0  0  0  0  0  0  0  0  0
   -1.6745   -6.4597   -3.8511 H   0  0  0  0  0  0  0  0  0  0  0  0
   -0.5957   -6.0748   -2.5226 H   0  0  0  0  0  0  0  0  0  0  0  0
    2.1160   -5.4512   -3.3080 H   0  0  0  0  0  0  0  0  0  0  0  0
    2.0500   -4.5471   -4.8108 H   0  0  0  0  0  0  0  0  0  0  0  0
   -2.2593   -4.2019   -4.2590 H   0  0  0  0  0  0  0  0  0  0  0  0
   -1.9739   -4.1349   -2.5106 H   0  0  0  0  0  0  0  0  0  0  0  0
    0.7203   -3.9761   -2.1250 H   0  0  0  0  0  0  0  0  0  0  0  0
    2.6876   -2.6804   -2.5234 H   0  0  0  0  0  0  0  0  0  0  0  0
   -0.3507   -3.0864   -4.7029 H   0  0  0  0  0  0  0  0  0  0  0  0
   -0.7027   -2.4077   -3.2466 H   0  0  0  0  0  0  0  0  0  0  0  0
    1.4809   -0.6743   -2.2160 H   0  0  0  0  0  0  0  0  0  0  0  0
  1  2  2  0
  1  3  1  0
  1 27  1  0
  2  5  1  0
  2 28  1  0
  3  6  2  0
  3 29  1  0
  4  7  1  0
  4  9  2  0
  4 30  1  0
  5  7  2  0
  5  8  1  0
  6  8  1  0
  6 16  1  0
  7 15  1  0
  8 18  2  0
  9 17  1  0
  9 18  1  0
 10 11  1  0
 10 12  1  0
 10 31  1  0
 10 32  1  0
 11 13  1  0
 11 33  1  0
 11 34  1  0
 12 14  1  0
 12 35  1  0
 12 36  1  0
 13 19  1  0
 13 37  1  0
 13 38  1  0
 14 15  1  0
 14 19  1  0
 14 39  1  1
 15 20  1  0
 15 40  1  1
 16 21  1  0
 16 22  1  0
 16 23  1  0
 17 24  1  0
 17 25  1  0
 17 26  1  0
 19 41  1  0
 19 42  1  0
 20 43  1  0
M  CHG  1  19   1
M  END
>  <group_name>  (1) 
RCH

>  <molecule_index>  (1) 
00068

>  <conformer_index>  (1) 
05

>  <method>  (1) 
b3lyp-d3bj

>  <basis>  (1) 
dzvp

>  <program>  (1) 
psi4

>  <initial_energy>  (1) 
-904735.5494018688 kilocalorie / mole

>  <final_energy>  (1) 
-904823.7021993472 kilocalorie / mole

$$$$
