RCH-00786-05
     RDKit          3D

 43 45  0  0  0  0  0  0  0  0999 V2000
   -2.1164   -1.3393   -9.1466 C   0  0  0  0  0  0  0  0  0  0  0  0
   -2.3080   -1.5528   -7.7994 C   0  0  0  0  0  0  0  0  0  0  0  0
   -1.8220   -0.0453   -9.6400 C   0  0  0  0  0  0  0  0  0  0  0  0
   -2.2084    0.4906   -4.6709 C   0  0  0  0  0  0  0  0  0  0  0  0
   -2.2100   -0.4769   -6.8765 C   0  0  0  0  0  0  0  0  0  0  0  0
   -1.7110    1.0226   -8.7772 C   0  0  0  0  0  0  0  0  0  0  0  0
   -2.3967   -0.6225   -5.4623 C   0  0  0  0  0  0  0  0  0  0  0  0
   -1.8929    0.8315   -7.3751 C   0  0  0  0  0  0  0  0  0  0  0  0
   -1.9074    1.7376   -5.2745 C   0  0  0  0  0  0  0  0  0  0  0  0
   -3.4798   -2.0754   -0.9851 C   0  0  0  0  0  0  0  0  0  0  0  0
   -4.8938   -1.4489   -1.0738 C   0  0  0  0  0  0  0  0  0  0  0  0
   -2.6508   -1.8392   -2.2644 C   0  0  0  0  0  0  0  0  0  0  0  0
   -4.9476   -0.3307   -2.1043 C   0  0  0  0  0  0  0  0  0  0  0  0
   -3.5276   -1.9669   -3.5100 C   0  0  2  0  0  0  0  0  0  0  0  0
   -2.8282   -1.9720   -4.9020 C   0  0  2  0  0  0  0  0  0  0  0  0
   -1.3965    2.4090   -9.3136 C   0  0  0  0  0  0  0  0  0  0  0  0
   -1.7706    2.9439   -4.3552 C   0  0  0  0  0  0  0  0  0  0  0  0
   -1.7661    1.9164   -6.5590 N   0  0  0  0  0  0  0  0  0  0  0  0
   -4.6415   -0.9008   -3.4876 N   0  0  0  0  0  0  0  0  0  0  0  0
   -1.6930   -2.8259   -4.8270 O   0  0  0  0  0  0  0  0  0  0  0  0
   -0.2467    2.8940   -8.8051 F   0  0  0  0  0  0  0  0  0  0  0  0
   -1.2597    2.3823  -10.6606 F   0  0  0  0  0  0  0  0  0  0  0  0
   -2.3857    3.2840   -9.0321 F   0  0  0  0  0  0  0  0  0  0  0  0
   -2.8614    2.9937   -3.5222 F   0  0  0  0  0  0  0  0  0  0  0  0
   -0.6871    2.8094   -3.5541 F   0  0  0  0  0  0  0  0  0  0  0  0
   -1.6894    4.0970   -5.0037 F   0  0  0  0  0  0  0  0  0  0  0  0
   -2.1825   -2.1697   -9.8430 H   0  0  0  0  0  0  0  0  0  0  0  0
   -2.5018   -2.5607   -7.4504 H   0  0  0  0  0  0  0  0  0  0  0  0
   -1.6781    0.1040  -10.7043 H   0  0  0  0  0  0  0  0  0  0  0  0
   -2.2628    0.4530   -3.5914 H   0  0  0  0  0  0  0  0  0  0  0  0
   -2.9351   -1.6562   -0.1357 H   0  0  0  0  0  0  0  0  0  0  0  0
   -3.5730   -3.1483   -0.7956 H   0  0  0  0  0  0  0  0  0  0  0  0
   -5.2018   -1.0346   -0.1106 H   0  0  0  0  0  0  0  0  0  0  0  0
   -5.6458   -2.2049   -1.3288 H   0  0  0  0  0  0  0  0  0  0  0  0
   -2.1498   -0.8710   -2.2227 H   0  0  0  0  0  0  0  0  0  0  0  0
   -1.8541   -2.5791   -2.3557 H   0  0  0  0  0  0  0  0  0  0  0  0
   -4.2016    0.4429   -1.9154 H   0  0  0  0  0  0  0  0  0  0  0  0
   -5.9272    0.1459   -2.1722 H   0  0  0  0  0  0  0  0  0  0  0  0
   -4.0597   -2.9194   -3.4299 H   0  0  0  0  0  0  0  0  0  0  0  0
   -3.5618   -2.3824   -5.6087 H   0  0  0  0  0  0  0  0  0  0  0  0
   -4.3718   -0.1282   -4.1132 H   0  0  0  0  0  0  0  0  0  0  0  0
   -5.4990   -1.3033   -3.8779 H   0  0  0  0  0  0  0  0  0  0  0  0
   -1.9355   -3.7317   -5.0783 H   0  0  0  0  0  0  0  0  0  0  0  0
  1  2  2  0
  1  3  1  0
  1 27  1  0
  2  5  1  0
  2 28  1  0
  3  6  2  0
  3 29  1  0
  4  7  1  0
  4  9  2  0
  4 30  1  0
  5  7  2  0
  5  8  1  0
  6  8  1  0
  6 16  1  0
  7 15  1  0
  8 18  2  0
  9 17  1  0
  9 18  1  0
 10 11  1  0
 10 12  1  0
 10 31  1  0
 10 32  1  0
 11 13  1  0
 11 33  1  0
 11 34  1  0
 12 14  1  0
 12 35  1  0
 12 36  1  0
 13 19  1  0
 13 37  1  0
 13 38  1  0
 14 15  1  0
 14 19  1  0
 14 39  1  1
 15 20  1  0
 15 40  1  6
 16 21  1  0
 16 22  1  0
 16 23  1  0
 17 24  1  0
 17 25  1  0
 17 26  1  0
 19 41  1  0
 19 42  1  0
 20 43  1  0
M  CHG  1  19   1
M  END
>  <group_name>  (1) 
RCH

>  <molecule_index>  (1) 
00786

>  <conformer_index>  (1) 
05

>  <method>  (1) 
b3lyp-d3bj

>  <basis>  (1) 
dzvp

>  <program>  (1) 
psi4

>  <initial_energy>  (1) 
-904752.5066710511 kilocalorie / mole

>  <final_energy>  (1) 
-904811.4557329225 kilocalorie / mole

$$$$
