RCH-00068-02
     RDKit          3D

 43 45  0  0  0  0  0  0  0  0999 V2000
    5.0468   -3.1329   -4.0558 C   0  0  0  0  0  0  0  0  0  0  0  0
    3.7134   -2.8154   -3.9249 C   0  0  0  0  0  0  0  0  0  0  0  0
    5.7539   -2.8183   -5.2423 C   0  0  0  0  0  0  0  0  0  0  0  0
    1.0956   -1.0856   -5.9900 C   0  0  0  0  0  0  0  0  0  0  0  0
    3.0182   -2.1534   -4.9776 C   0  0  0  0  0  0  0  0  0  0  0  0
    5.1226   -2.1697   -6.2797 C   0  0  0  0  0  0  0  0  0  0  0  0
    1.6349   -1.7862   -4.9291 C   0  0  0  0  0  0  0  0  0  0  0  0
    3.7442   -1.8104   -6.1704 C   0  0  0  0  0  0  0  0  0  0  0  0
    1.9109   -0.8034   -7.1130 C   0  0  0  0  0  0  0  0  0  0  0  0
   -0.2398   -4.9633   -2.4016 C   0  0  0  0  0  0  0  0  0  0  0  0
    0.2827   -5.9862   -3.4181 C   0  0  0  0  0  0  0  0  0  0  0  0
   -1.0981   -3.8922   -3.0882 C   0  0  0  0  0  0  0  0  0  0  0  0
    1.0593   -5.3075   -4.5403 C   0  0  0  0  0  0  0  0  0  0  0  0
   -0.3729   -3.1895   -4.2378 C   0  0  1  0  0  0  0  0  0  0  0  0
    0.7139   -2.1804   -3.7831 C   0  0  2  0  0  0  0  0  0  0  0  0
    5.8899   -1.8320   -7.5482 C   0  0  0  0  0  0  0  0  0  0  0  0
    1.2723   -0.0969   -8.3045 C   0  0  0  0  0  0  0  0  0  0  0  0
    3.1670   -1.1574   -7.2147 N   0  0  0  0  0  0  0  0  0  0  0  0
    0.1982   -4.2362   -5.1884 N   0  0  0  0  0  0  0  0  0  0  0  0
   -0.0750   -1.0936   -3.3159 O   0  0  0  0  0  0  0  0  0  0  0  0
    7.1712   -2.2615   -7.4598 F   0  0  0  0  0  0  0  0  0  0  0  0
    5.9260   -0.5057   -7.7730 F   0  0  0  0  0  0  0  0  0  0  0  0
    5.3435   -2.4323   -8.6273 F   0  0  0  0  0  0  0  0  0  0  0  0
    0.6408    1.0293   -7.8968 F   0  0  0  0  0  0  0  0  0  0  0  0
    0.3195   -0.9106   -8.8451 F   0  0  0  0  0  0  0  0  0  0  0  0
    2.1451    0.2177   -9.2546 F   0  0  0  0  0  0  0  0  0  0  0  0
    5.5710   -3.6208   -3.2394 H   0  0  0  0  0  0  0  0  0  0  0  0
    3.2141   -3.0448   -2.9890 H   0  0  0  0  0  0  0  0  0  0  0  0
    6.8022   -3.0818   -5.3289 H   0  0  0  0  0  0  0  0  0  0  0  0
    0.0644   -0.7458   -5.9672 H   0  0  0  0  0  0  0  0  0  0  0  0
    0.6025   -4.5024   -1.8728 H   0  0  0  0  0  0  0  0  0  0  0  0
   -0.8376   -5.4704   -1.6402 H   0  0  0  0  0  0  0  0  0  0  0  0
    0.9480   -6.7119   -2.9416 H   0  0  0  0  0  0  0  0  0  0  0  0
   -0.5512   -6.5602   -3.8421 H   0  0  0  0  0  0  0  0  0  0  0  0
   -1.4105   -3.1180   -2.3837 H   0  0  0  0  0  0  0  0  0  0  0  0
   -2.0171   -4.3494   -3.4761 H   0  0  0  0  0  0  0  0  0  0  0  0
    1.3480   -5.9988   -5.3350 H   0  0  0  0  0  0  0  0  0  0  0  0
    1.9573   -4.8053   -4.1792 H   0  0  0  0  0  0  0  0  0  0  0  0
   -1.0812   -2.6166   -4.8419 H   0  0  0  0  0  0  0  0  0  0  0  0
    1.2888   -2.6094   -2.9587 H   0  0  0  0  0  0  0  0  0  0  0  0
   -0.5911   -4.6958   -5.6569 H   0  0  0  0  0  0  0  0  0  0  0  0
    0.7328   -3.7527   -5.9232 H   0  0  0  0  0  0  0  0  0  0  0  0
    0.5055   -0.4130   -2.9358 H   0  0  0  0  0  0  0  0  0  0  0  0
  1  2  2  0
  1  3  1  0
  1 27  1  0
  2  5  1  0
  2 28  1  0
  3  6  2  0
  3 29  1  0
  4  7  1  0
  4  9  2  0
  4 30  1  0
  5  7  2  0
  5  8  1  0
  6  8  1  0
  6 16  1  0
  7 15  1  0
  8 18  2  0
  9 17  1  0
  9 18  1  0
 10 11  1  0
 10 12  1  0
 10 31  1  0
 10 32  1  0
 11 13  1  0
 11 33  1  0
 11 34  1  0
 12 14  1  0
 12 35  1  0
 12 36  1  0
 13 19  1  0
 13 37  1  0
 13 38  1  0
 14 15  1  0
 14 19  1  0
 14 39  1  6
 15 20  1  0
 15 40  1  1
 16 21  1  0
 16 22  1  0
 16 23  1  0
 17 24  1  0
 17 25  1  0
 17 26  1  0
 19 41  1  0
 19 42  1  0
 20 43  1  0
M  CHG  1  19   1
M  END
>  <group_name>  (1) 
RCH

>  <molecule_index>  (1) 
00068

>  <conformer_index>  (1) 
02

>  <method>  (1) 
b3lyp-d3bj

>  <basis>  (1) 
dzvp

>  <program>  (1) 
psi4

>  <initial_energy>  (1) 
-904739.6166424751 kilocalorie / mole

>  <final_energy>  (1) 
-904822.4167915368 kilocalorie / mole

$$$$
