XTP-00455-03
     RDKit          3D

 32 35  0  0  0  0  0  0  0  0999 V2000
    1.4487   -0.3717   -0.5779 C   0  0  0  0  0  0  0  0  0  0  0  0
    2.8283   -0.5134   -0.7215 C   0  0  0  0  0  0  0  0  0  0  0  0
   -5.4798   -1.1397   -1.0687 C   0  0  0  0  0  0  0  0  0  0  0  0
    1.8894    1.3096    1.0745 C   0  0  0  0  0  0  0  0  0  0  0  0
   -2.8100   -1.3806   -1.3307 C   0  0  0  0  0  0  0  0  0  0  0  0
   -1.1354    1.6872    1.4018 C   0  0  0  0  0  0  0  0  0  0  0  0
   -5.3048    0.6317    0.5443 C   0  0  0  0  0  0  0  0  0  0  0  0
    0.9407    0.5616    0.3424 C   0  0  0  0  0  0  0  0  0  0  0  0
   -4.0124   -0.8576   -0.7961 C   0  0  0  0  0  0  0  0  0  0  0  0
   -0.4930    0.7580    0.5478 C   0  0  0  0  0  0  0  0  0  0  0  0
   -3.9409    0.1597    0.1234 C   0  0  0  0  0  0  0  0  0  0  0  0
    3.6616    0.2842    0.0614 C   0  0  0  0  0  0  0  0  0  0  0  0
   -1.5580    0.0592   -0.0575 C   0  0  0  0  0  0  0  0  0  0  0  0
    5.1704    0.1831   -0.0270 C   0  0  0  0  0  0  0  0  0  0  0  0
    5.7174   -0.2007    1.1503 F   0  0  0  0  0  0  0  0  0  0  0  0
    5.7367    1.3640   -0.3646 F   0  0  0  0  0  0  0  0  0  0  0  0
    5.5550   -0.7268   -0.9607 F   0  0  0  0  0  0  0  0  0  0  0  0
   -6.2145   -0.4015   -0.0061 N   0  0  0  0  0  0  0  0  0  0  0  0
    3.2076    1.1816    0.9446 N   0  0  0  0  0  0  0  0  0  0  0  0
   -1.6138   -0.9382   -0.9646 N   0  0  0  0  0  0  0  0  0  0  0  0
   -2.4750    1.6187    1.3767 N   0  0  0  0  0  0  0  0  0  0  0  0
   -2.7285    0.6267    0.4898 N   0  0  0  0  0  0  0  0  0  0  0  0
    0.7662   -0.9748   -1.1660 H   0  0  0  0  0  0  0  0  0  0  0  0
    3.2454   -1.2264   -1.4240 H   0  0  0  0  0  0  0  0  0  0  0  0
   -5.7333   -2.2035   -1.0411 H   0  0  0  0  0  0  0  0  0  0  0  0
   -5.7667   -0.7606   -2.0579 H   0  0  0  0  0  0  0  0  0  0  0  0
    1.5632    2.0471    1.8051 H   0  0  0  0  0  0  0  0  0  0  0  0
   -2.8252   -2.1811   -2.0689 H   0  0  0  0  0  0  0  0  0  0  0  0
   -0.6756    2.4237    2.0486 H   0  0  0  0  0  0  0  0  0  0  0  0
   -5.4078    0.7334    1.6281 H   0  0  0  0  0  0  0  0  0  0  0  0
   -5.5088    1.6174    0.1060 H   0  0  0  0  0  0  0  0  0  0  0  0
   -6.4312   -1.0566    0.7399 H   0  0  0  0  0  0  0  0  0  0  0  0
  1  2  2  0
  1  8  1  0
  1 23  1  0
  2 12  1  0
  2 24  1  0
  3  9  1  0
  3 18  1  0
  3 25  1  0
  3 26  1  0
  4  8  2  0
  4 19  1  0
  4 27  1  0
  5  9  1  0
  5 20  2  0
  5 28  1  0
  6 10  1  0
  6 21  2  0
  6 29  1  0
  7 11  1  0
  7 18  1  0
  7 30  1  0
  7 31  1  0
  8 10  1  0
  9 11  2  0
 10 13  2  0
 11 22  1  0
 12 14  1  0
 12 19  2  0
 13 20  1  0
 13 22  1  0
 14 15  1  0
 14 16  1  0
 14 17  1  0
 18 32  1  0
 21 22  1  0
M  END
>  <group_name>  (1) 
XTP

>  <molecule_index>  (1) 
00455

>  <conformer_index>  (1) 
03

>  <method>  (1) 
b3lyp-d3bj

>  <basis>  (1) 
dzvp

>  <program>  (1) 
psi4

>  <initial_energy>  (1) 
-698348.5968610313 kilocalorie / mole

>  <final_energy>  (1) 
-698411.0681146606 kilocalorie / mole

$$$$
