XTP-01155-04
     RDKit          3D

 41 45  0  0  0  0  0  0  0  0999 V2000
    4.1410   -1.5868    0.7161 C   0  0  0  0  0  0  0  0  0  0  0  0
    4.0856   -0.7833    1.8606 C   0  0  0  0  0  0  0  0  0  0  0  0
   -4.0406   -1.9542    0.6073 C   0  0  0  0  0  0  0  0  0  0  0  0
    3.1807   -1.4523   -0.3002 C   0  0  0  0  0  0  0  0  0  0  0  0
    3.0699    0.1744    2.0153 C   0  0  0  0  0  0  0  0  0  0  0  0
   -3.6451   -2.9727   -0.2653 C   0  0  0  0  0  0  0  0  0  0  0  0
   -3.3702   -0.7307    0.5759 C   0  0  0  0  0  0  0  0  0  0  0  0
    1.4974    0.9815   -2.0738 C   0  0  0  0  0  0  0  0  0  0  0  0
    1.7305    3.7700    0.3158 C   0  0  0  0  0  0  0  0  0  0  0  0
    2.1723   -0.5115   -0.1366 C   0  0  0  0  0  0  0  0  0  0  0  0
    2.1183    0.2918    1.0116 C   0  0  0  0  0  0  0  0  0  0  0  0
    1.4359    2.4486    0.0453 C   0  0  0  0  0  0  0  0  0  0  0  0
    1.7327    2.2737   -1.3354 C   0  0  0  0  0  0  0  0  0  0  0  0
    1.0425   -0.1172   -1.0711 C   0  0  1  0  0  0  0  0  0  0  0  0
   -2.5910   -2.7102   -1.1417 C   0  0  0  0  0  0  0  0  0  0  0  0
   -2.3382   -0.5953   -0.3539 C   0  0  0  0  0  0  0  0  0  0  0  0
    0.9605    1.2696    0.8536 C   0  0  1  0  0  0  0  0  0  0  0  0
   -2.0910   -3.7571   -2.1224 C   0  0  0  0  0  0  0  0  0  0  0  0
   -2.7020   -4.9509   -1.9238 F   0  0  0  0  0  0  0  0  0  0  0  0
   -0.7608   -3.9561   -1.9952 F   0  0  0  0  0  0  0  0  0  0  0  0
   -2.3267   -3.3890   -3.3998 F   0  0  0  0  0  0  0  0  0  0  0  0
    2.1736    4.2976   -0.8635 N   0  0  0  0  0  0  0  0  0  0  0  0
   -1.9495   -1.5412   -1.1981 N   0  0  0  0  0  0  0  0  0  0  0  0
    2.1754    3.4037   -1.8864 N   0  0  0  0  0  0  0  0  0  0  0  0
    0.0984    0.4292   -0.0405 N   0  0  0  0  0  0  0  0  0  0  0  0
   -1.8903    1.8088    0.6586 O   0  0  0  0  0  0  0  0  0  0  0  0
   -1.5114    1.4375   -1.8392 O   0  0  0  0  0  0  0  0  0  0  0  0
   -1.4242    0.9744   -0.4545 S   0  0  0  0  0  0  0  0  0  0  0  0
    4.9322   -2.3249    0.6150 H   0  0  0  0  0  0  0  0  0  0  0  0
    4.8352   -0.9034    2.6383 H   0  0  0  0  0  0  0  0  0  0  0  0
   -4.8565   -2.1164    1.3058 H   0  0  0  0  0  0  0  0  0  0  0  0
    3.2258   -2.0785   -1.1881 H   0  0  0  0  0  0  0  0  0  0  0  0
    3.0353    0.8043    2.9010 H   0  0  0  0  0  0  0  0  0  0  0  0
   -4.1351   -3.9396   -0.2655 H   0  0  0  0  0  0  0  0  0  0  0  0
   -3.6208    0.0928    1.2355 H   0  0  0  0  0  0  0  0  0  0  0  0
    2.4087    0.6459   -2.5794 H   0  0  0  0  0  0  0  0  0  0  0  0
    0.7233    1.1266   -2.8312 H   0  0  0  0  0  0  0  0  0  0  0  0
    1.6566    4.3625    1.2176 H   0  0  0  0  0  0  0  0  0  0  0  0
    0.5794   -0.9582   -1.5865 H   0  0  0  0  0  0  0  0  0  0  0  0
    0.4333    1.5296    1.7706 H   0  0  0  0  0  0  0  0  0  0  0  0
    2.4466    5.2523   -1.0502 H   0  0  0  0  0  0  0  0  0  0  0  0
  1  2  2  0
  1  4  1  0
  1 29  1  0
  2  5  1  0
  2 30  1  0
  3  6  2  0
  3  7  1  0
  3 31  1  0
  4 10  2  0
  4 32  1  0
  5 11  2  0
  5 33  1  0
  6 15  1  0
  6 34  1  0
  7 16  2  0
  7 35  1  0
  8 13  1  0
  8 14  1  0
  8 36  1  0
  8 37  1  0
  9 12  2  0
  9 22  1  0
  9 38  1  0
 10 11  1  0
 10 14  1  0
 11 17  1  0
 12 13  1  0
 12 17  1  0
 13 24  2  0
 14 25  1  0
 14 39  1  6
 15 18  1  0
 15 23  2  0
 16 23  1  0
 16 28  1  0
 17 25  1  0
 17 40  1  1
 18 19  1  0
 18 20  1  0
 18 21  1  0
 22 24  1  0
 22 41  1  0
 25 28  1  0
 26 28  2  0
 27 28  2  0
M  END
>  <group_name>  (1) 
XTP

>  <molecule_index>  (1) 
01155

>  <conformer_index>  (1) 
04

>  <method>  (1) 
b3lyp-d3bj

>  <basis>  (1) 
dzvp

>  <program>  (1) 
psi4

>  <initial_energy>  (1) 
-1105014.063645654 kilocalorie / mole

>  <final_energy>  (1) 
-1105089.361762043 kilocalorie / mole

$$$$
