XTP-00455-01
     RDKit          3D

 32 35  0  0  0  0  0  0  0  0999 V2000
    1.4398   -0.5452    0.4194 C   0  0  0  0  0  0  0  0  0  0  0  0
    2.8153   -0.6969    0.5904 C   0  0  0  0  0  0  0  0  0  0  0  0
   -5.5028   -1.2466    0.7929 C   0  0  0  0  0  0  0  0  0  0  0  0
    1.9150    1.3976   -0.9039 C   0  0  0  0  0  0  0  0  0  0  0  0
   -2.8403   -1.5187    1.0932 C   0  0  0  0  0  0  0  0  0  0  0  0
   -1.0982    1.7543   -1.3431 C   0  0  0  0  0  0  0  0  0  0  0  0
   -5.2887    0.6690   -0.6413 C   0  0  0  0  0  0  0  0  0  0  0  0
    0.9516    0.5277   -0.3464 C   0  0  0  0  0  0  0  0  0  0  0  0
   -4.0311   -0.9095    0.6284 C   0  0  0  0  0  0  0  0  0  0  0  0
   -0.4769    0.7497   -0.5618 C   0  0  0  0  0  0  0  0  0  0  0  0
   -3.9370    0.1835   -0.1975 C   0  0  0  0  0  0  0  0  0  0  0  0
    3.6643    0.2309   -0.0110 C   0  0  0  0  0  0  0  0  0  0  0  0
   -1.5570    0.0135   -0.0324 C   0  0  0  0  0  0  0  0  0  0  0  0
    5.1694    0.1424    0.1358 C   0  0  0  0  0  0  0  0  0  0  0  0
    5.6782    1.2337    0.7545 F   0  0  0  0  0  0  0  0  0  0  0  0
    5.7883    0.0374   -1.0623 F   0  0  0  0  0  0  0  0  0  0  0  0
    5.5355   -0.9401    0.8718 F   0  0  0  0  0  0  0  0  0  0  0  0
   -6.2282   -0.0750    0.2314 N   0  0  0  0  0  0  0  0  0  0  0  0
    3.2293    1.2611   -0.7464 N   0  0  0  0  0  0  0  0  0  0  0  0
   -1.6348   -1.0637    0.7766 N   0  0  0  0  0  0  0  0  0  0  0  0
   -2.4387    1.7020   -1.3367 N   0  0  0  0  0  0  0  0  0  0  0  0
   -2.7143    0.6435   -0.5376 N   0  0  0  0  0  0  0  0  0  0  0  0
    0.7454   -1.2436    0.8727 H   0  0  0  0  0  0  0  0  0  0  0  0
    3.2172   -1.5158    1.1767 H   0  0  0  0  0  0  0  0  0  0  0  0
   -5.7553   -2.1527    0.2274 H   0  0  0  0  0  0  0  0  0  0  0  0
   -5.7986   -1.4178    1.8322 H   0  0  0  0  0  0  0  0  0  0  0  0
    1.6042    2.2495   -1.5053 H   0  0  0  0  0  0  0  0  0  0  0  0
   -2.8730   -2.3928    1.7418 H   0  0  0  0  0  0  0  0  0  0  0  0
   -0.6220    2.5316   -1.9272 H   0  0  0  0  0  0  0  0  0  0  0  0
   -5.4444    0.4199   -1.6993 H   0  0  0  0  0  0  0  0  0  0  0  0
   -5.4087    1.7514   -0.5442 H   0  0  0  0  0  0  0  0  0  0  0  0
   -6.4877    0.5338    1.0025 H   0  0  0  0  0  0  0  0  0  0  0  0
  1  2  2  0
  1  8  1  0
  1 23  1  0
  2 12  1  0
  2 24  1  0
  3  9  1  0
  3 18  1  0
  3 25  1  0
  3 26  1  0
  4  8  2  0
  4 19  1  0
  4 27  1  0
  5  9  1  0
  5 20  2  0
  5 28  1  0
  6 10  1  0
  6 21  2  0
  6 29  1  0
  7 11  1  0
  7 18  1  0
  7 30  1  0
  7 31  1  0
  8 10  1  0
  9 11  2  0
 10 13  2  0
 11 22  1  0
 12 14  1  0
 12 19  2  0
 13 20  1  0
 13 22  1  0
 14 15  1  0
 14 16  1  0
 14 17  1  0
 18 32  1  0
 21 22  1  0
M  END
>  <group_name>  (1) 
XTP

>  <molecule_index>  (1) 
00455

>  <conformer_index>  (1) 
01

>  <method>  (1) 
b3lyp-d3bj

>  <basis>  (1) 
dzvp

>  <program>  (1) 
psi4

>  <initial_energy>  (1) 
-698368.7445912451 kilocalorie / mole

>  <final_energy>  (1) 
-698411.0680397758 kilocalorie / mole

$$$$
