XTP-00577-04
     RDKit          3D

 38 41  0  0  0  0  0  0  0  0999 V2000
    1.0186   -2.3726    1.9742 C   0  0  0  0  0  0  0  0  0  0  0  0
    2.4095   -2.2910    2.0709 C   0  0  0  0  0  0  0  0  0  0  0  0
   -2.6070   -0.4584    1.6419 C   0  0  0  0  0  0  0  0  0  0  0  0
   -2.2814   -1.7283    1.1856 C   0  0  0  0  0  0  0  0  0  0  0  0
   -1.4245   -1.8433    4.8087 C   0  0  0  0  0  0  0  0  0  0  0  0
    1.2011   -4.6836    2.5782 C   0  0  0  0  0  0  0  0  0  0  0  0
   -0.1467    0.3502    5.3970 C   0  0  0  0  0  0  0  0  0  0  0  0
   -1.4022    1.7724    4.0503 C   0  0  0  0  0  0  0  0  0  0  0  0
   -1.1190   -3.7516    2.1483 C   0  0  0  0  0  0  0  0  0  0  0  0
    0.3900   -3.5935    2.2299 C   0  0  0  0  0  0  0  0  0  0  0  0
   -1.5137   -0.3655    5.3076 C   0  0  1  0  0  0  0  0  0  0  0  0
   -2.3063   -0.4413    3.0398 C   0  0  0  0  0  0  0  0  0  0  0  0
   -2.2782    0.4898    4.2222 C   0  0  2  0  0  0  0  0  0  0  0  0
   -1.8199   -1.6821    3.3744 C   0  0  0  0  0  0  0  0  0  0  0  0
    3.1113   -3.4444    2.4208 C   0  0  0  0  0  0  0  0  0  0  0  0
    4.6233   -3.4393    2.5528 C   0  0  0  0  0  0  0  0  0  0  0  0
    5.0170   -3.7901    3.7974 F   0  0  0  0  0  0  0  0  0  0  0  0
    5.1397   -2.2094    2.2993 F   0  0  0  0  0  0  0  0  0  0  0  0
    5.2015   -4.3021    1.6876 F   0  0  0  0  0  0  0  0  0  0  0  0
   -0.3865    1.7731    5.1207 N   0  0  0  0  0  0  0  0  0  0  0  0
    2.5312   -4.6227    2.6714 N   0  0  0  0  0  0  0  0  0  0  0  0
   -1.8190   -2.4880    2.2566 N   0  0  0  0  0  0  0  0  0  0  0  0
    0.4307   -1.4966    1.7158 H   0  0  0  0  0  0  0  0  0  0  0  0
    2.9314   -1.3589    1.8856 H   0  0  0  0  0  0  0  0  0  0  0  0
   -3.0180    0.3370    1.0327 H   0  0  0  0  0  0  0  0  0  0  0  0
   -2.3525   -2.1637    0.1972 H   0  0  0  0  0  0  0  0  0  0  0  0
   -2.1136   -2.4966    5.3590 H   0  0  0  0  0  0  0  0  0  0  0  0
   -0.4157   -2.2542    4.9459 H   0  0  0  0  0  0  0  0  0  0  0  0
    0.7527   -5.6524    2.7996 H   0  0  0  0  0  0  0  0  0  0  0  0
    0.5233   -0.0452    4.6214 H   0  0  0  0  0  0  0  0  0  0  0  0
    0.3511    0.2199    6.3623 H   0  0  0  0  0  0  0  0  0  0  0  0
   -0.8902    1.7376    3.0823 H   0  0  0  0  0  0  0  0  0  0  0  0
   -1.9856    2.6967    4.0829 H   0  0  0  0  0  0  0  0  0  0  0  0
   -1.4600   -4.4271    2.9403 H   0  0  0  0  0  0  0  0  0  0  0  0
   -1.3972   -4.2144    1.1959 H   0  0  0  0  0  0  0  0  0  0  0  0
   -2.0182   -0.3105    6.2772 H   0  0  0  0  0  0  0  0  0  0  0  0
   -3.2849    0.7588    4.5618 H   0  0  0  0  0  0  0  0  0  0  0  0
   -0.7919    2.1970    5.9540 H   0  0  0  0  0  0  0  0  0  0  0  0
  1  2  2  0
  1 10  1  0
  1 23  1  0
  2 15  1  0
  2 24  1  0
  3  4  2  0
  3 12  1  0
  3 25  1  0
  4 22  1  0
  4 26  1  0
  5 11  1  0
  5 14  1  0
  5 27  1  0
  5 28  1  0
  6 10  2  0
  6 21  1  0
  6 29  1  0
  7 11  1  0
  7 20  1  0
  7 30  1  0
  7 31  1  0
  8 13  1  0
  8 20  1  0
  8 32  1  0
  8 33  1  0
  9 10  1  0
  9 22  1  0
  9 34  1  0
  9 35  1  0
 11 13  1  0
 11 36  1  1
 12 13  1  0
 12 14  2  0
 13 37  1  1
 14 22  1  0
 15 16  1  0
 15 21  2  0
 16 17  1  0
 16 18  1  0
 16 19  1  0
 20 38  1  0
M  END
>  <group_name>  (1) 
XTP

>  <molecule_index>  (1) 
00577

>  <conformer_index>  (1) 
04

>  <method>  (1) 
b3lyp-d3bj

>  <basis>  (1) 
dzvp

>  <program>  (1) 
psi4

>  <initial_energy>  (1) 
-679759.7264017175 kilocalorie / mole

>  <final_energy>  (1) 
-679792.1687876125 kilocalorie / mole

$$$$
