XTP-01155-06
     RDKit          3D

 41 45  0  0  0  0  0  0  0  0999 V2000
    4.7714   -0.0829    1.7240 C   0  0  0  0  0  0  0  0  0  0  0  0
    3.8677    0.4657    2.6410 C   0  0  0  0  0  0  0  0  0  0  0  0
   -3.3341   -2.6931   -2.0704 C   0  0  0  0  0  0  0  0  0  0  0  0
    4.3410   -0.4829    0.4484 C   0  0  0  0  0  0  0  0  0  0  0  0
    2.5149    0.6307    2.3026 C   0  0  0  0  0  0  0  0  0  0  0  0
   -4.0655   -1.7017   -1.4089 C   0  0  0  0  0  0  0  0  0  0  0  0
   -1.9949   -2.8933   -1.7322 C   0  0  0  0  0  0  0  0  0  0  0  0
    2.2877    0.5135   -2.1757 C   0  0  0  0  0  0  0  0  0  0  0  0
    0.0956    2.8179   -0.3304 C   0  0  0  0  0  0  0  0  0  0  0  0
    2.9981   -0.3333    0.1264 C   0  0  0  0  0  0  0  0  0  0  0  0
    2.0965    0.2192    1.0453 C   0  0  0  0  0  0  0  0  0  0  0  0
    0.7015    1.5848   -0.4567 C   0  0  0  0  0  0  0  0  0  0  0  0
    1.4864    1.6721   -1.6383 C   0  0  0  0  0  0  0  0  0  0  0  0
    2.2515   -0.6570   -1.1584 C   0  0  1  0  0  0  0  0  0  0  0  0
   -3.4153   -0.9572   -0.4235 C   0  0  0  0  0  0  0  0  0  0  0  0
   -1.4673   -2.0838   -0.7256 C   0  0  0  0  0  0  0  0  0  0  0  0
    0.7368    0.3229    0.3622 C   0  0  1  0  0  0  0  0  0  0  0  0
   -4.1250    0.1448    0.3441 C   0  0  0  0  0  0  0  0  0  0  0  0
   -3.4824    1.3279    0.2137 F   0  0  0  0  0  0  0  0  0  0  0  0
   -5.3929    0.3204   -0.1015 F   0  0  0  0  0  0  0  0  0  0  0  0
   -4.1930   -0.1352    1.6628 F   0  0  0  0  0  0  0  0  0  0  0  0
    0.5301    3.5528   -1.3983 N   0  0  0  0  0  0  0  0  0  0  0  0
   -2.1409   -1.1449   -0.0761 N   0  0  0  0  0  0  0  0  0  0  0  0
    1.3769    2.8702   -2.2129 N   0  0  0  0  0  0  0  0  0  0  0  0
    0.8294   -0.7550   -0.6860 N   0  0  0  0  0  0  0  0  0  0  0  0
    0.8743   -3.2523   -1.1509 O   0  0  0  0  0  0  0  0  0  0  0  0
    0.3015   -2.4857    1.2162 O   0  0  0  0  0  0  0  0  0  0  0  0
    0.2734   -2.2785   -0.2318 S   0  0  0  0  0  0  0  0  0  0  0  0
    5.8134   -0.2097    2.0057 H   0  0  0  0  0  0  0  0  0  0  0  0
    4.2157    0.7601    3.6276 H   0  0  0  0  0  0  0  0  0  0  0  0
   -3.8019   -3.2958   -2.8436 H   0  0  0  0  0  0  0  0  0  0  0  0
    5.0448   -0.9146   -0.2596 H   0  0  0  0  0  0  0  0  0  0  0  0
    1.8153    1.0583    3.0165 H   0  0  0  0  0  0  0  0  0  0  0  0
   -5.1050   -1.5105   -1.6496 H   0  0  0  0  0  0  0  0  0  0  0  0
   -1.3716   -3.6362   -2.2177 H   0  0  0  0  0  0  0  0  0  0  0  0
    3.3267    0.8038   -2.3621 H   0  0  0  0  0  0  0  0  0  0  0  0
    1.8608    0.1725   -3.1247 H   0  0  0  0  0  0  0  0  0  0  0  0
   -0.5914    3.2193    0.4021 H   0  0  0  0  0  0  0  0  0  0  0  0
    2.5568   -1.5910   -1.6292 H   0  0  0  0  0  0  0  0  0  0  0  0
   -0.1292    0.1819    1.0059 H   0  0  0  0  0  0  0  0  0  0  0  0
    0.2798    4.5016   -1.6389 H   0  0  0  0  0  0  0  0  0  0  0  0
  1  2  2  0
  1  4  1  0
  1 29  1  0
  2  5  1  0
  2 30  1  0
  3  6  2  0
  3  7  1  0
  3 31  1  0
  4 10  2  0
  4 32  1  0
  5 11  2  0
  5 33  1  0
  6 15  1  0
  6 34  1  0
  7 16  2  0
  7 35  1  0
  8 13  1  0
  8 14  1  0
  8 36  1  0
  8 37  1  0
  9 12  2  0
  9 22  1  0
  9 38  1  0
 10 11  1  0
 10 14  1  0
 11 17  1  0
 12 13  1  0
 12 17  1  0
 13 24  2  0
 14 25  1  0
 14 39  1  6
 15 18  1  0
 15 23  2  0
 16 23  1  0
 16 28  1  0
 17 25  1  0
 17 40  1  1
 18 19  1  0
 18 20  1  0
 18 21  1  0
 22 24  1  0
 22 41  1  0
 25 28  1  0
 26 28  2  0
 27 28  2  0
M  END
>  <group_name>  (1) 
XTP

>  <molecule_index>  (1) 
01155

>  <conformer_index>  (1) 
06

>  <method>  (1) 
b3lyp-d3bj

>  <basis>  (1) 
dzvp

>  <program>  (1) 
psi4

>  <initial_energy>  (1) 
-1105026.6154498314 kilocalorie / mole

>  <final_energy>  (1) 
-1105089.6072798574 kilocalorie / mole

$$$$
