XTP-01155-08
     RDKit          3D

 41 45  0  0  0  0  0  0  0  0999 V2000
    5.2195    0.4663    0.6285 C   0  0  0  0  0  0  0  0  0  0  0  0
    4.7373    1.3479    1.6028 C   0  0  0  0  0  0  0  0  0  0  0  0
   -3.5582    0.0216   -0.4223 C   0  0  0  0  0  0  0  0  0  0  0  0
    4.3539   -0.4317   -0.0169 C   0  0  0  0  0  0  0  0  0  0  0  0
    3.3776    1.3529    1.9539 C   0  0  0  0  0  0  0  0  0  0  0  0
   -3.4953   -0.3958   -1.7549 C   0  0  0  0  0  0  0  0  0  0  0  0
   -2.6460   -0.4949    0.4960 C   0  0  0  0  0  0  0  0  0  0  0  0
    1.2279   -0.5324   -1.4481 C   0  0  0  0  0  0  0  0  0  0  0  0
   -0.4525    2.2132    0.3432 C   0  0  0  0  0  0  0  0  0  0  0  0
    3.0123   -0.4307    0.3429 C   0  0  0  0  0  0  0  0  0  0  0  0
    2.5323    0.4534    1.3192 C   0  0  0  0  0  0  0  0  0  0  0  0
    0.3494    1.0900    0.3607 C   0  0  0  0  0  0  0  0  0  0  0  0
    0.4677    0.6913   -1.0025 C   0  0  0  0  0  0  0  0  0  0  0  0
    1.8498   -1.2392   -0.2081 C   0  0  1  0  0  0  0  0  0  0  0  0
   -2.5201   -1.3307   -2.1006 C   0  0  0  0  0  0  0  0  0  0  0  0
   -1.7062   -1.4124    0.0190 C   0  0  0  0  0  0  0  0  0  0  0  0
    1.0246    0.2639    1.4273 C   0  0  1  0  0  0  0  0  0  0  0  0
   -2.3837   -1.8465   -3.5224 C   0  0  0  0  0  0  0  0  0  0  0  0
   -1.1255   -1.6910   -3.9863 F   0  0  0  0  0  0  0  0  0  0  0  0
   -3.2145   -1.1873   -4.3678 F   0  0  0  0  0  0  0  0  0  0  0  0
   -2.6872   -3.1603   -3.6019 F   0  0  0  0  0  0  0  0  0  0  0  0
   -0.7733    2.4186   -0.9695 N   0  0  0  0  0  0  0  0  0  0  0  0
   -1.6409   -1.8375   -1.2334 N   0  0  0  0  0  0  0  0  0  0  0  0
   -0.2263    1.4988   -1.8066 N   0  0  0  0  0  0  0  0  0  0  0  0
    0.9498   -1.1577    0.9795 N   0  0  0  0  0  0  0  0  0  0  0  0
   -0.9339   -1.7370    2.5036 O   0  0  0  0  0  0  0  0  0  0  0  0
   -0.1016   -3.4161    0.7448 O   0  0  0  0  0  0  0  0  0  0  0  0
   -0.4323   -2.0603    1.1646 S   0  0  0  0  0  0  0  0  0  0  0  0
    6.2758    0.4732    0.3731 H   0  0  0  0  0  0  0  0  0  0  0  0
    5.4230    2.0325    2.0948 H   0  0  0  0  0  0  0  0  0  0  0  0
   -4.3088    0.7405   -0.1063 H   0  0  0  0  0  0  0  0  0  0  0  0
    4.7330   -1.1159   -0.7723 H   0  0  0  0  0  0  0  0  0  0  0  0
    3.0044    2.0428    2.7068 H   0  0  0  0  0  0  0  0  0  0  0  0
   -4.1790   -0.0103   -2.5025 H   0  0  0  0  0  0  0  0  0  0  0  0
   -2.6490   -0.2117    1.5419 H   0  0  0  0  0  0  0  0  0  0  0  0
    0.5608   -1.2199   -1.9724 H   0  0  0  0  0  0  0  0  0  0  0  0
    2.0282   -0.2588   -2.1432 H   0  0  0  0  0  0  0  0  0  0  0  0
   -0.8190    2.8580    1.1307 H   0  0  0  0  0  0  0  0  0  0  0  0
    2.0871   -2.2814   -0.4199 H   0  0  0  0  0  0  0  0  0  0  0  0
    0.6102    0.3786    2.4283 H   0  0  0  0  0  0  0  0  0  0  0  0
   -1.3340    3.1617   -1.3623 H   0  0  0  0  0  0  0  0  0  0  0  0
  1  2  2  0
  1  4  1  0
  1 29  1  0
  2  5  1  0
  2 30  1  0
  3  6  2  0
  3  7  1  0
  3 31  1  0
  4 10  2  0
  4 32  1  0
  5 11  2  0
  5 33  1  0
  6 15  1  0
  6 34  1  0
  7 16  2  0
  7 35  1  0
  8 13  1  0
  8 14  1  0
  8 36  1  0
  8 37  1  0
  9 12  2  0
  9 22  1  0
  9 38  1  0
 10 11  1  0
 10 14  1  0
 11 17  1  0
 12 13  1  0
 12 17  1  0
 13 24  2  0
 14 25  1  0
 14 39  1  6
 15 18  1  0
 15 23  2  0
 16 23  1  0
 16 28  1  0
 17 25  1  0
 17 40  1  1
 18 19  1  0
 18 20  1  0
 18 21  1  0
 22 24  1  0
 22 41  1  0
 25 28  1  0
 26 28  2  0
 27 28  2  0
M  END
>  <group_name>  (1) 
XTP

>  <molecule_index>  (1) 
01155

>  <conformer_index>  (1) 
08

>  <method>  (1) 
b3lyp-d3bj

>  <basis>  (1) 
dzvp

>  <program>  (1) 
psi4

>  <initial_energy>  (1) 
-1105010.985275799 kilocalorie / mole

>  <final_energy>  (1) 
-1105091.9582119577 kilocalorie / mole

$$$$
