XTP-01155-09
     RDKit          3D

 41 45  0  0  0  0  0  0  0  0999 V2000
    4.2861   -1.3499    1.4554 C   0  0  0  0  0  0  0  0  0  0  0  0
    3.9689   -0.4447    2.4744 C   0  0  0  0  0  0  0  0  0  0  0  0
   -2.2934   -3.0240    0.4669 C   0  0  0  0  0  0  0  0  0  0  0  0
    3.5329   -1.3855    0.2699 C   0  0  0  0  0  0  0  0  0  0  0  0
    2.8937    0.4478    2.3318 C   0  0  0  0  0  0  0  0  0  0  0  0
   -3.4487   -3.2115   -0.2968 C   0  0  0  0  0  0  0  0  0  0  0  0
   -1.5339   -1.8676    0.2836 C   0  0  0  0  0  0  0  0  0  0  0  0
    2.0755    0.7266   -2.0467 C   0  0  0  0  0  0  0  0  0  0  0  0
    1.7039    3.7504    0.0164 C   0  0  0  0  0  0  0  0  0  0  0  0
    2.4622   -0.5104    0.1402 C   0  0  0  0  0  0  0  0  0  0  0  0
    2.1465    0.3974    1.1628 C   0  0  0  0  0  0  0  0  0  0  0  0
    1.5408    2.3897   -0.1504 C   0  0  0  0  0  0  0  0  0  0  0  0
    2.0967    2.0999   -1.4272 C   0  0  0  0  0  0  0  0  0  0  0  0
    1.5061   -0.2940   -1.0211 C   0  0  1  0  0  0  0  0  0  0  0  0
   -3.7901   -2.2192   -1.2176 C   0  0  0  0  0  0  0  0  0  0  0  0
   -1.9815   -0.9550   -0.6759 C   0  0  0  0  0  0  0  0  0  0  0  0
    0.9880    1.2660    0.6861 C   0  0  1  0  0  0  0  0  0  0  0  0
   -5.0307   -2.3394   -2.0890 C   0  0  0  0  0  0  0  0  0  0  0  0
   -5.8730   -1.3055   -1.8944 F   0  0  0  0  0  0  0  0  0  0  0  0
   -4.7115   -2.3710   -3.3993 F   0  0  0  0  0  0  0  0  0  0  0  0
   -5.7146   -3.4797   -1.8105 F   0  0  0  0  0  0  0  0  0  0  0  0
    2.3262    4.1882   -1.1175 N   0  0  0  0  0  0  0  0  0  0  0  0
   -3.0730   -1.1107   -1.4107 N   0  0  0  0  0  0  0  0  0  0  0  0
    2.5683    3.1989   -2.0158 N   0  0  0  0  0  0  0  0  0  0  0  0
    0.3605    0.2781   -0.2478 N   0  0  0  0  0  0  0  0  0  0  0  0
   -0.9646    0.7609   -2.4267 O   0  0  0  0  0  0  0  0  0  0  0  0
   -1.7488    1.6505   -0.1607 O   0  0  0  0  0  0  0  0  0  0  0  0
   -1.1036    0.6216   -0.9784 S   0  0  0  0  0  0  0  0  0  0  0  0
    5.1212   -2.0332    1.5836 H   0  0  0  0  0  0  0  0  0  0  0  0
    4.5609   -0.4328    3.3857 H   0  0  0  0  0  0  0  0  0  0  0  0
   -1.9894   -3.7694    1.1963 H   0  0  0  0  0  0  0  0  0  0  0  0
    3.7845   -2.0881   -0.5212 H   0  0  0  0  0  0  0  0  0  0  0  0
    2.6576    1.1580    3.1205 H   0  0  0  0  0  0  0  0  0  0  0  0
   -4.0652   -4.0958   -0.1832 H   0  0  0  0  0  0  0  0  0  0  0  0
   -0.6299   -1.6714    0.8480 H   0  0  0  0  0  0  0  0  0  0  0  0
    3.0815    0.4127   -2.3438 H   0  0  0  0  0  0  0  0  0  0  0  0
    1.4437    0.7354   -2.9382 H   0  0  0  0  0  0  0  0  0  0  0  0
    1.4267    4.4242    0.8157 H   0  0  0  0  0  0  0  0  0  0  0  0
    1.2035   -1.2184   -1.5178 H   0  0  0  0  0  0  0  0  0  0  0  0
    0.2836    1.5784    1.4560 H   0  0  0  0  0  0  0  0  0  0  0  0
    2.5699    5.1380   -1.3615 H   0  0  0  0  0  0  0  0  0  0  0  0
  1  2  2  0
  1  4  1  0
  1 29  1  0
  2  5  1  0
  2 30  1  0
  3  6  2  0
  3  7  1  0
  3 31  1  0
  4 10  2  0
  4 32  1  0
  5 11  2  0
  5 33  1  0
  6 15  1  0
  6 34  1  0
  7 16  2  0
  7 35  1  0
  8 13  1  0
  8 14  1  0
  8 36  1  0
  8 37  1  0
  9 12  2  0
  9 22  1  0
  9 38  1  0
 10 11  1  0
 10 14  1  0
 11 17  1  0
 12 13  1  0
 12 17  1  0
 13 24  2  0
 14 25  1  0
 14 39  1  6
 15 18  1  0
 15 23  2  0
 16 23  1  0
 16 28  1  0
 17 25  1  0
 17 40  1  1
 18 19  1  0
 18 20  1  0
 18 21  1  0
 22 24  1  0
 22 41  1  0
 25 28  1  0
 26 28  2  0
 27 28  2  0
M  END
>  <group_name>  (1) 
XTP

>  <molecule_index>  (1) 
01155

>  <conformer_index>  (1) 
09

>  <method>  (1) 
b3lyp-d3bj

>  <basis>  (1) 
dzvp

>  <program>  (1) 
psi4

>  <initial_energy>  (1) 
-1105025.8024545047 kilocalorie / mole

>  <final_energy>  (1) 
-1105086.1291293078 kilocalorie / mole

$$$$
