XTP-00577-06
     RDKit          3D

 38 41  0  0  0  0  0  0  0  0999 V2000
    2.8847   -2.5360    1.5796 C   0  0  0  0  0  0  0  0  0  0  0  0
    3.5465   -3.6734    2.0458 C   0  0  0  0  0  0  0  0  0  0  0  0
   -2.7816   -1.4343    2.1226 C   0  0  0  0  0  0  0  0  0  0  0  0
   -1.7567   -1.5157    1.1913 C   0  0  0  0  0  0  0  0  0  0  0  0
   -0.0642   -0.2852    4.2718 C   0  0  0  0  0  0  0  0  0  0  0  0
    0.8351   -3.4946    2.3671 C   0  0  0  0  0  0  0  0  0  0  0  0
   -1.4958    1.4849    5.5703 C   0  0  0  0  0  0  0  0  0  0  0  0
   -3.5182    0.6506    4.8328 C   0  0  0  0  0  0  0  0  0  0  0  0
    0.7503   -1.2163    1.2187 C   0  0  0  0  0  0  0  0  0  0  0  0
    1.5004   -2.4334    1.7326 C   0  0  0  0  0  0  0  0  0  0  0  0
   -1.1956   -0.0224    5.3283 C   0  0  1  0  0  0  0  0  0  0  0  0
   -2.1923   -0.9456    3.3312 C   0  0  0  0  0  0  0  0  0  0  0  0
   -2.5623   -0.5694    4.7398 C   0  0  2  0  0  0  0  0  0  0  0  0
   -0.8559   -0.7451    3.0900 C   0  0  0  0  0  0  0  0  0  0  0  0
    2.7790   -4.6657    2.6558 C   0  0  0  0  0  0  0  0  0  0  0  0
    3.4148   -5.9346    3.1945 C   0  0  0  0  0  0  0  0  0  0  0  0
    2.9117   -7.0369    2.5969 F   0  0  0  0  0  0  0  0  0  0  0  0
    3.2139   -6.0671    4.5242 F   0  0  0  0  0  0  0  0  0  0  0  0
    4.7581   -5.9427    2.9882 F   0  0  0  0  0  0  0  0  0  0  0  0
   -2.6735    1.8519    4.7640 N   0  0  0  0  0  0  0  0  0  0  0  0
    1.4555   -4.5880    2.8205 N   0  0  0  0  0  0  0  0  0  0  0  0
   -0.5753   -1.0756    1.7820 N   0  0  0  0  0  0  0  0  0  0  0  0
    3.4476   -1.7351    1.1044 H   0  0  0  0  0  0  0  0  0  0  0  0
    4.6202   -3.7841    1.9442 H   0  0  0  0  0  0  0  0  0  0  0  0
   -3.8168   -1.6910    1.9352 H   0  0  0  0  0  0  0  0  0  0  0  0
   -1.7648   -1.8371    0.1578 H   0  0  0  0  0  0  0  0  0  0  0  0
    0.6393   -1.0519    4.6215 H   0  0  0  0  0  0  0  0  0  0  0  0
    0.5256    0.6210    4.0824 H   0  0  0  0  0  0  0  0  0  0  0  0
   -0.2407   -3.4536    2.5203 H   0  0  0  0  0  0  0  0  0  0  0  0
   -1.7476    1.6463    6.6254 H   0  0  0  0  0  0  0  0  0  0  0  0
   -0.6498    2.1364    5.3327 H   0  0  0  0  0  0  0  0  0  0  0  0
   -4.0390    0.6506    5.7985 H   0  0  0  0  0  0  0  0  0  0  0  0
   -4.2724    0.6596    4.0414 H   0  0  0  0  0  0  0  0  0  0  0  0
    1.3318   -0.3133    1.4350 H   0  0  0  0  0  0  0  0  0  0  0  0
    0.6532   -1.2742    0.1295 H   0  0  0  0  0  0  0  0  0  0  0  0
   -0.9413   -0.5155    6.2698 H   0  0  0  0  0  0  0  0  0  0  0  0
   -2.9502   -1.4218    5.3086 H   0  0  0  0  0  0  0  0  0  0  0  0
   -2.3734    1.9643    3.7953 H   0  0  0  0  0  0  0  0  0  0  0  0
  1  2  2  0
  1 10  1  0
  1 23  1  0
  2 15  1  0
  2 24  1  0
  3  4  2  0
  3 12  1  0
  3 25  1  0
  4 22  1  0
  4 26  1  0
  5 11  1  0
  5 14  1  0
  5 27  1  0
  5 28  1  0
  6 10  2  0
  6 21  1  0
  6 29  1  0
  7 11  1  0
  7 20  1  0
  7 30  1  0
  7 31  1  0
  8 13  1  0
  8 20  1  0
  8 32  1  0
  8 33  1  0
  9 10  1  0
  9 22  1  0
  9 34  1  0
  9 35  1  0
 11 13  1  0
 11 36  1  1
 12 13  1  0
 12 14  2  0
 13 37  1  1
 14 22  1  0
 15 16  1  0
 15 21  2  0
 16 17  1  0
 16 18  1  0
 16 19  1  0
 20 38  1  0
M  END
>  <group_name>  (1) 
XTP

>  <molecule_index>  (1) 
00577

>  <conformer_index>  (1) 
06

>  <method>  (1) 
b3lyp-d3bj

>  <basis>  (1) 
dzvp

>  <program>  (1) 
psi4

>  <initial_energy>  (1) 
-679748.1246724927 kilocalorie / mole

>  <final_energy>  (1) 
-679792.0312014233 kilocalorie / mole

$$$$
