XTP-00577-07
     RDKit          3D

 38 41  0  0  0  0  0  0  0  0999 V2000
    2.8341   -2.6171    1.4412 C   0  0  0  0  0  0  0  0  0  0  0  0
    3.5551   -3.6911    1.9663 C   0  0  0  0  0  0  0  0  0  0  0  0
   -2.8215   -1.6105    2.2234 C   0  0  0  0  0  0  0  0  0  0  0  0
   -1.8464   -1.7514    1.2462 C   0  0  0  0  0  0  0  0  0  0  0  0
   -0.0260   -0.1833    4.0936 C   0  0  0  0  0  0  0  0  0  0  0  0
    0.8653   -3.5414    2.4459 C   0  0  0  0  0  0  0  0  0  0  0  0
   -1.4684    1.6915    5.2056 C   0  0  0  0  0  0  0  0  0  0  0  0
   -3.5229    0.6835    4.8171 C   0  0  0  0  0  0  0  0  0  0  0  0
    0.6460   -1.3826    1.1008 C   0  0  0  0  0  0  0  0  0  0  0  0
    1.4599   -2.5301    1.6743 C   0  0  0  0  0  0  0  0  0  0  0  0
   -1.1159    0.1866    5.1525 C   0  0  1  0  0  0  0  0  0  0  0  0
   -2.1849   -0.9928    3.3447 C   0  0  0  0  0  0  0  0  0  0  0  0
   -2.4844   -0.4791    4.7264 C   0  0  2  0  0  0  0  0  0  0  0  0
   -0.8682   -0.7837    3.0117 C   0  0  0  0  0  0  0  0  0  0  0  0
    2.8552   -4.6377    2.7145 C   0  0  0  0  0  0  0  0  0  0  0  0
    3.5584   -5.8362    3.3256 C   0  0  0  0  0  0  0  0  0  0  0  0
    3.0513   -7.0006    2.8645 F   0  0  0  0  0  0  0  0  0  0  0  0
    3.4430   -5.8494    4.6720 F   0  0  0  0  0  0  0  0  0  0  0  0
    4.8864   -5.8332    3.0363 F   0  0  0  0  0  0  0  0  0  0  0  0
   -2.8915    1.7913    5.5588 N   0  0  0  0  0  0  0  0  0  0  0  0
    1.5430   -4.5737    2.9570 N   0  0  0  0  0  0  0  0  0  0  0  0
   -0.6500   -1.2253    1.7245 N   0  0  0  0  0  0  0  0  0  0  0  0
    3.3436   -1.8525    0.8581 H   0  0  0  0  0  0  0  0  0  0  0  0
    4.6228   -3.7879    1.8051 H   0  0  0  0  0  0  0  0  0  0  0  0
   -3.8571   -1.9091    2.1189 H   0  0  0  0  0  0  0  0  0  0  0  0
   -1.9001   -2.1695    0.2493 H   0  0  0  0  0  0  0  0  0  0  0  0
    0.7020   -0.8984    4.4971 H   0  0  0  0  0  0  0  0  0  0  0  0
    0.5399    0.7026    3.7756 H   0  0  0  0  0  0  0  0  0  0  0  0
   -0.1996   -3.5095    2.6636 H   0  0  0  0  0  0  0  0  0  0  0  0
   -1.3307    2.1344    4.2101 H   0  0  0  0  0  0  0  0  0  0  0  0
   -0.8526    2.2584    5.9101 H   0  0  0  0  0  0  0  0  0  0  0  0
   -4.4578    0.3873    5.3008 H   0  0  0  0  0  0  0  0  0  0  0  0
   -3.7660    1.0351    3.8084 H   0  0  0  0  0  0  0  0  0  0  0  0
    0.4911   -1.5392    0.0281 H   0  0  0  0  0  0  0  0  0  0  0  0
    1.2110   -0.4496    1.2038 H   0  0  0  0  0  0  0  0  0  0  0  0
   -0.8141   -0.1523    6.1480 H   0  0  0  0  0  0  0  0  0  0  0  0
   -2.7626   -1.2874    5.4123 H   0  0  0  0  0  0  0  0  0  0  0  0
   -2.9871    1.6093    6.5573 H   0  0  0  0  0  0  0  0  0  0  0  0
  1  2  2  0
  1 10  1  0
  1 23  1  0
  2 15  1  0
  2 24  1  0
  3  4  2  0
  3 12  1  0
  3 25  1  0
  4 22  1  0
  4 26  1  0
  5 11  1  0
  5 14  1  0
  5 27  1  0
  5 28  1  0
  6 10  2  0
  6 21  1  0
  6 29  1  0
  7 11  1  0
  7 20  1  0
  7 30  1  0
  7 31  1  0
  8 13  1  0
  8 20  1  0
  8 32  1  0
  8 33  1  0
  9 10  1  0
  9 22  1  0
  9 34  1  0
  9 35  1  0
 11 13  1  0
 11 36  1  1
 12 13  1  0
 12 14  2  0
 13 37  1  1
 14 22  1  0
 15 16  1  0
 15 21  2  0
 16 17  1  0
 16 18  1  0
 16 19  1  0
 20 38  1  0
M  END
>  <group_name>  (1) 
XTP

>  <molecule_index>  (1) 
00577

>  <conformer_index>  (1) 
07

>  <method>  (1) 
b3lyp-d3bj

>  <basis>  (1) 
dzvp

>  <program>  (1) 
psi4

>  <initial_energy>  (1) 
-679790.7101851812 kilocalorie / mole

>  <final_energy>  (1) 
-679791.1910560536 kilocalorie / mole

$$$$
