XTP-00577-08
     RDKit          3D

 38 41  0  0  0  0  0  0  0  0999 V2000
    1.0176   -3.3960    2.2689 C   0  0  0  0  0  0  0  0  0  0  0  0
    1.7066   -4.5357    2.6916 C   0  0  0  0  0  0  0  0  0  0  0  0
   -2.5464   -1.3381    1.7780 C   0  0  0  0  0  0  0  0  0  0  0  0
   -1.4140   -1.3371    0.9752 C   0  0  0  0  0  0  0  0  0  0  0  0
   -0.1297   -0.3082    4.3172 C   0  0  0  0  0  0  0  0  0  0  0  0
    3.1441   -2.3798    1.8404 C   0  0  0  0  0  0  0  0  0  0  0  0
   -1.7537    1.3970    5.4497 C   0  0  0  0  0  0  0  0  0  0  0  0
   -3.7036    0.5145    4.5520 C   0  0  0  0  0  0  0  0  0  0  0  0
    1.0643   -1.0223    1.3334 C   0  0  0  0  0  0  0  0  0  0  0  0
    1.7438   -2.2889    1.8259 C   0  0  0  0  0  0  0  0  0  0  0  0
   -1.3905   -0.0881    5.2157 C   0  0  1  0  0  0  0  0  0  0  0  0
   -2.1194   -0.9337    3.0812 C   0  0  0  0  0  0  0  0  0  0  0  0
   -2.6597   -0.6432    4.4549 C   0  0  2  0  0  0  0  0  0  0  0  0
   -0.7654   -0.7052    3.0218 C   0  0  0  0  0  0  0  0  0  0  0  0
    3.1002   -4.5128    2.6513 C   0  0  0  0  0  0  0  0  0  0  0  0
    3.9231   -5.7096    3.0919 C   0  0  0  0  0  0  0  0  0  0  0  0
    3.1296   -6.7426    3.4771 F   0  0  0  0  0  0  0  0  0  0  0  0
    4.7162   -6.1638    2.0964 F   0  0  0  0  0  0  0  0  0  0  0  0
    4.7225   -5.4074    4.1398 F   0  0  0  0  0  0  0  0  0  0  0  0
   -3.2170    1.4728    5.5618 N   0  0  0  0  0  0  0  0  0  0  0  0
    3.8163   -3.4614    2.2389 N   0  0  0  0  0  0  0  0  0  0  0  0
   -0.3229   -0.9277    1.7360 N   0  0  0  0  0  0  0  0  0  0  0  0
   -0.0680   -3.3666    2.2890 H   0  0  0  0  0  0  0  0  0  0  0  0
    1.1766   -5.4141    3.0426 H   0  0  0  0  0  0  0  0  0  0  0  0
   -3.5469   -1.5846    1.4448 H   0  0  0  0  0  0  0  0  0  0  0  0
   -1.2903   -1.5764   -0.0731 H   0  0  0  0  0  0  0  0  0  0  0  0
    0.5211   -1.0955    4.7185 H   0  0  0  0  0  0  0  0  0  0  0  0
    0.4788    0.6035    4.2511 H   0  0  0  0  0  0  0  0  0  0  0  0
    3.7519   -1.5344    1.5171 H   0  0  0  0  0  0  0  0  0  0  0  0
   -1.2732    1.8287    6.3326 H   0  0  0  0  0  0  0  0  0  0  0  0
   -1.4458    1.9900    4.5783 H   0  0  0  0  0  0  0  0  0  0  0  0
   -3.7679    1.0292    3.5871 H   0  0  0  0  0  0  0  0  0  0  0  0
   -4.7074    0.1667    4.8114 H   0  0  0  0  0  0  0  0  0  0  0  0
    1.1060   -0.9797    0.2401 H   0  0  0  0  0  0  0  0  0  0  0  0
    1.6081   -0.1467    1.7035 H   0  0  0  0  0  0  0  0  0  0  0  0
   -1.2672   -0.5890    6.1806 H   0  0  0  0  0  0  0  0  0  0  0  0
   -3.0512   -1.5442    4.9413 H   0  0  0  0  0  0  0  0  0  0  0  0
   -3.4860    1.1364    6.4858 H   0  0  0  0  0  0  0  0  0  0  0  0
  1  2  2  0
  1 10  1  0
  1 23  1  0
  2 15  1  0
  2 24  1  0
  3  4  2  0
  3 12  1  0
  3 25  1  0
  4 22  1  0
  4 26  1  0
  5 11  1  0
  5 14  1  0
  5 27  1  0
  5 28  1  0
  6 10  2  0
  6 21  1  0
  6 29  1  0
  7 11  1  0
  7 20  1  0
  7 30  1  0
  7 31  1  0
  8 13  1  0
  8 20  1  0
  8 32  1  0
  8 33  1  0
  9 10  1  0
  9 22  1  0
  9 34  1  0
  9 35  1  0
 11 13  1  0
 11 36  1  1
 12 13  1  0
 12 14  2  0
 13 37  1  1
 14 22  1  0
 15 16  1  0
 15 21  2  0
 16 17  1  0
 16 18  1  0
 16 19  1  0
 20 38  1  0
M  END
>  <group_name>  (1) 
XTP

>  <molecule_index>  (1) 
00577

>  <conformer_index>  (1) 
08

>  <method>  (1) 
b3lyp-d3bj

>  <basis>  (1) 
dzvp

>  <program>  (1) 
psi4

>  <initial_energy>  (1) 
-679755.37928123 kilocalorie / mole

>  <final_energy>  (1) 
-679791.8984035387 kilocalorie / mole

$$$$
