XTP-00455-04
     RDKit          3D

 32 35  0  0  0  0  0  0  0  0999 V2000
    1.4491   -0.6150   -0.2280 C   0  0  0  0  0  0  0  0  0  0  0  0
    2.8284   -0.8110   -0.2867 C   0  0  0  0  0  0  0  0  0  0  0  0
   -5.4827   -1.5100   -0.2626 C   0  0  0  0  0  0  0  0  0  0  0  0
    1.8948    1.6597    0.3872 C   0  0  0  0  0  0  0  0  0  0  0  0
   -2.8154   -1.8415   -0.4349 C   0  0  0  0  0  0  0  0  0  0  0  0
   -1.1276    2.1481    0.5228 C   0  0  0  0  0  0  0  0  0  0  0  0
   -5.3001    0.8190    0.2983 C   0  0  0  0  0  0  0  0  0  0  0  0
    0.9438    0.6502    0.1183 C   0  0  0  0  0  0  0  0  0  0  0  0
   -4.0164   -1.1144   -0.2489 C   0  0  0  0  0  0  0  0  0  0  0  0
   -0.4892    0.9246    0.2048 C   0  0  0  0  0  0  0  0  0  0  0  0
   -3.9403    0.2171    0.0779 C   0  0  0  0  0  0  0  0  0  0  0  0
    3.6641    0.2665    0.0037 C   0  0  0  0  0  0  0  0  0  0  0  0
   -1.5573    0.0270   -0.0015 C   0  0  0  0  0  0  0  0  0  0  0  0
    5.1728    0.1333   -0.0274 C   0  0  0  0  0  0  0  0  0  0  0  0
    5.7235    0.3784    1.1846 F   0  0  0  0  0  0  0  0  0  0  0  0
    5.7376    0.9943   -0.9046 F   0  0  0  0  0  0  0  0  0  0  0  0
    5.5549   -1.1188   -0.3933 F   0  0  0  0  0  0  0  0  0  0  0  0
   -6.2265   -0.2226   -0.2063 N   0  0  0  0  0  0  0  0  0  0  0  0
    3.2125    1.4822    0.3345 N   0  0  0  0  0  0  0  0  0  0  0  0
   -1.6174   -1.2826   -0.3213 N   0  0  0  0  0  0  0  0  0  0  0  0
   -2.4675    2.0814    0.5281 N   0  0  0  0  0  0  0  0  0  0  0  0
   -2.7252    0.7904    0.2090 N   0  0  0  0  0  0  0  0  0  0  0  0
    0.7649   -1.4279   -0.4441 H   0  0  0  0  0  0  0  0  0  0  0  0
    3.2434   -1.7775   -0.5506 H   0  0  0  0  0  0  0  0  0  0  0  0
   -5.7232   -2.1231    0.6154 H   0  0  0  0  0  0  0  0  0  0  0  0
   -5.7735   -2.0817   -1.1489 H   0  0  0  0  0  0  0  0  0  0  0  0
    1.5708    2.6616    0.6613 H   0  0  0  0  0  0  0  0  0  0  0  0
   -2.8338   -2.9008   -0.6864 H   0  0  0  0  0  0  0  0  0  0  0  0
   -0.6647    3.0992    0.7537 H   0  0  0  0  0  0  0  0  0  0  0  0
   -5.4543    1.0055    1.3694 H   0  0  0  0  0  0  0  0  0  0  0  0
   -5.4360    1.7734   -0.2175 H   0  0  0  0  0  0  0  0  0  0  0  0
   -6.4935    0.0287   -1.1540 H   0  0  0  0  0  0  0  0  0  0  0  0
  1  2  2  0
  1  8  1  0
  1 23  1  0
  2 12  1  0
  2 24  1  0
  3  9  1  0
  3 18  1  0
  3 25  1  0
  3 26  1  0
  4  8  2  0
  4 19  1  0
  4 27  1  0
  5  9  1  0
  5 20  2  0
  5 28  1  0
  6 10  1  0
  6 21  2  0
  6 29  1  0
  7 11  1  0
  7 18  1  0
  7 30  1  0
  7 31  1  0
  8 10  1  0
  9 11  2  0
 10 13  2  0
 11 22  1  0
 12 14  1  0
 12 19  2  0
 13 20  1  0
 13 22  1  0
 14 15  1  0
 14 16  1  0
 14 17  1  0
 18 32  1  0
 21 22  1  0
M  END
>  <group_name>  (1) 
XTP

>  <molecule_index>  (1) 
00455

>  <conformer_index>  (1) 
04

>  <method>  (1) 
b3lyp-d3bj

>  <basis>  (1) 
dzvp

>  <program>  (1) 
psi4

>  <initial_energy>  (1) 
-698382.0325994575 kilocalorie / mole

>  <final_energy>  (1) 
-698411.0663645187 kilocalorie / mole

$$$$
