XTP-00577-05
     RDKit          3D

 38 41  0  0  0  0  0  0  0  0999 V2000
    2.8950   -2.5655    2.2022 C   0  0  0  0  0  0  0  0  0  0  0  0
    2.6175   -3.3461    1.0773 C   0  0  0  0  0  0  0  0  0  0  0  0
   -0.8671   -1.3921    6.4011 C   0  0  0  0  0  0  0  0  0  0  0  0
    0.4302   -1.8593    6.2493 C   0  0  0  0  0  0  0  0  0  0  0  0
   -0.0128    0.4775    3.3841 C   0  0  0  0  0  0  0  0  0  0  0  0
    0.7767   -3.2370    3.0968 C   0  0  0  0  0  0  0  0  0  0  0  0
   -2.3813    0.2730    2.2828 C   0  0  0  0  0  0  0  0  0  0  0  0
   -3.4063   -0.4378    4.2276 C   0  0  0  0  0  0  0  0  0  0  0  0
    2.2250   -1.6649    4.4818 C   0  0  0  0  0  0  0  0  0  0  0  0
    1.9663   -2.5032    3.2418 C   0  0  0  0  0  0  0  0  0  0  0  0
   -1.5182    0.9235    3.4017 C   0  0  1  0  0  0  0  0  0  0  0  0
   -1.0961   -0.4763    5.3255 C   0  0  0  0  0  0  0  0  0  0  0  0
   -2.1835    0.3772    4.7331 C   0  0  2  0  0  0  0  0  0  0  0  0
    0.0499   -0.4263    4.5727 C   0  0  0  0  0  0  0  0  0  0  0  0
    1.4032   -4.0304    1.0457 C   0  0  0  0  0  0  0  0  0  0  0  0
    1.0173   -4.8962   -0.1401 C   0  0  0  0  0  0  0  0  0  0  0  0
    0.8605   -6.1897    0.2188 F   0  0  0  0  0  0  0  0  0  0  0  0
   -0.1409   -4.4875   -0.7011 F   0  0  0  0  0  0  0  0  0  0  0  0
    1.9693   -4.8609   -1.1091 F   0  0  0  0  0  0  0  0  0  0  0  0
   -3.0860   -0.8815    2.8643 N   0  0  0  0  0  0  0  0  0  0  0  0
    0.4957   -3.9842    2.0264 N   0  0  0  0  0  0  0  0  0  0  0  0
    1.0030   -1.2462    5.1376 N   0  0  0  0  0  0  0  0  0  0  0  0
    3.8252   -2.0040    2.2597 H   0  0  0  0  0  0  0  0  0  0  0  0
    3.3151   -3.4131    0.2502 H   0  0  0  0  0  0  0  0  0  0  0  0
   -1.5432   -1.6758    7.1980 H   0  0  0  0  0  0  0  0  0  0  0  0
    1.0013   -2.5638    6.8401 H   0  0  0  0  0  0  0  0  0  0  0  0
    0.2471   -0.0234    2.4426 H   0  0  0  0  0  0  0  0  0  0  0  0
    0.6603    1.3397    3.4793 H   0  0  0  0  0  0  0  0  0  0  0  0
    0.0193   -3.2088    3.8772 H   0  0  0  0  0  0  0  0  0  0  0  0
   -1.7972   -0.0341    1.4107 H   0  0  0  0  0  0  0  0  0  0  0  0
   -3.1364    0.9895    1.9370 H   0  0  0  0  0  0  0  0  0  0  0  0
   -3.6412   -1.2912    4.8692 H   0  0  0  0  0  0  0  0  0  0  0  0
   -4.2939    0.2054    4.1806 H   0  0  0  0  0  0  0  0  0  0  0  0
    2.8206   -2.2339    5.2029 H   0  0  0  0  0  0  0  0  0  0  0  0
    2.8146   -0.7828    4.2088 H   0  0  0  0  0  0  0  0  0  0  0  0
   -1.5793    2.0133    3.3443 H   0  0  0  0  0  0  0  0  0  0  0  0
   -2.4963    1.1852    5.4038 H   0  0  0  0  0  0  0  0  0  0  0  0
   -2.4331   -1.6630    2.9251 H   0  0  0  0  0  0  0  0  0  0  0  0
  1  2  2  0
  1 10  1  0
  1 23  1  0
  2 15  1  0
  2 24  1  0
  3  4  2  0
  3 12  1  0
  3 25  1  0
  4 22  1  0
  4 26  1  0
  5 11  1  0
  5 14  1  0
  5 27  1  0
  5 28  1  0
  6 10  2  0
  6 21  1  0
  6 29  1  0
  7 11  1  0
  7 20  1  0
  7 30  1  0
  7 31  1  0
  8 13  1  0
  8 20  1  0
  8 32  1  0
  8 33  1  0
  9 10  1  0
  9 22  1  0
  9 34  1  0
  9 35  1  0
 11 13  1  0
 11 36  1  1
 12 13  1  0
 12 14  2  0
 13 37  1  1
 14 22  1  0
 15 16  1  0
 15 21  2  0
 16 17  1  0
 16 18  1  0
 16 19  1  0
 20 38  1  0
M  END
>  <group_name>  (1) 
XTP

>  <molecule_index>  (1) 
00577

>  <conformer_index>  (1) 
05

>  <method>  (1) 
b3lyp-d3bj

>  <basis>  (1) 
dzvp

>  <program>  (1) 
psi4

>  <initial_energy>  (1) 
-679719.5265981541 kilocalorie / mole

>  <final_energy>  (1) 
-679792.2538701004 kilocalorie / mole

$$$$
