BRI-00739-01
     RDKit          3D

 34 35  0  0  0  0  0  0  0  0999 V2000
    8.2223    1.6173    0.3761 C   0  0  0  0  0  0  0  0  0  0  0  0
    7.2070    0.6352    0.7298 N   0  0  0  0  0  0  0  0  0  0  0  0
    7.3015   -0.6910    0.3920 C   0  0  0  0  0  0  0  0  0  0  0  0
    8.2597   -1.0733   -0.2662 O   0  0  0  0  0  0  0  0  0  0  0  0
    6.2615   -1.6980    0.8132 C   0  0  2  0  0  0  0  0  0  0  0  0
    6.1412   -2.7165   -0.2684 C   0  0  0  0  0  0  0  0  0  0  0  0
    5.0501   -3.0077   -0.9289 N   0  0  0  0  0  0  0  0  0  0  0  0
    3.8677   -2.3227   -0.6787 C   0  0  0  0  0  0  0  0  0  0  0  0
    2.6671   -2.7559   -1.4835 C   0  0  0  0  0  0  0  0  0  0  0  0
    3.7690   -1.3428    0.2972 C   0  0  0  0  0  0  0  0  0  0  0  0
    4.9431   -1.0417    1.0982 C   0  0  0  0  0  0  0  0  0  0  0  0
    4.8843   -0.2434    2.0315 O   0  0  0  0  0  0  0  0  0  0  0  0
    2.5120   -0.6212    0.5443 C   0  0  0  0  0  0  0  0  0  0  0  0
    1.8888    0.1276   -0.4512 C   0  0  0  0  0  0  0  0  0  0  0  0
    0.6840    0.8135   -0.2011 C   0  0  0  0  0  0  0  0  0  0  0  0
    0.1012    0.7671    1.0272 N   0  0  0  0  0  0  0  0  0  0  0  0
    0.7117    0.0616    1.9967 C   0  0  0  0  0  0  0  0  0  0  0  0
    1.9012   -0.6369    1.7923 C   0  0  0  0  0  0  0  0  0  0  0  0
    0.0494    1.6058   -1.3496 C   0  0  0  0  0  0  0  0  0  0  0  0
   -0.1812    0.7698   -2.4053 F   0  0  0  0  0  0  0  0  0  0  0  0
   -1.1340    2.1954   -1.0064 F   0  0  0  0  0  0  0  0  0  0  0  0
    0.9108    2.5805   -1.7654 F   0  0  0  0  0  0  0  0  0  0  0  0
    9.2068    1.2924    0.7288 H   0  0  0  0  0  0  0  0  0  0  0  0
    8.2598    1.7496   -0.7101 H   0  0  0  0  0  0  0  0  0  0  0  0
    7.9907    2.5825    0.8369 H   0  0  0  0  0  0  0  0  0  0  0  0
    6.4406    0.8907    1.3556 H   0  0  0  0  0  0  0  0  0  0  0  0
    6.6117   -2.1869    1.7209 H   0  0  0  0  0  0  0  0  0  0  0  0
    7.0273   -3.2962   -0.5163 H   0  0  0  0  0  0  0  0  0  0  0  0
    1.7816   -2.8389   -0.8469 H   0  0  0  0  0  0  0  0  0  0  0  0
    2.8488   -3.7359   -1.9349 H   0  0  0  0  0  0  0  0  0  0  0  0
    2.4735   -2.0422   -2.2882 H   0  0  0  0  0  0  0  0  0  0  0  0
    2.3400    0.1986   -1.4358 H   0  0  0  0  0  0  0  0  0  0  0  0
    0.2548    0.0335    2.9816 H   0  0  0  0  0  0  0  0  0  0  0  0
    2.3444   -1.1829    2.6183 H   0  0  0  0  0  0  0  0  0  0  0  0
  1  2  1  0
  1 23  1  0
  1 24  1  0
  1 25  1  0
  2  3  1  0
  2 26  1  0
  3  4  2  0
  3  5  1  0
  5  6  1  0
  5 11  1  0
  5 27  1  1
  6  7  2  0
  6 28  1  0
  7  8  1  0
  8  9  1  0
  8 10  2  0
  9 29  1  0
  9 30  1  0
  9 31  1  0
 10 11  1  0
 10 13  1  0
 11 12  2  0
 13 14  2  0
 13 18  1  0
 14 15  1  0
 14 32  1  0
 15 16  2  0
 15 19  1  0
 16 17  1  0
 17 18  2  0
 17 33  1  0
 18 34  1  0
 19 20  1  0
 19 21  1  0
 19 22  1  0
M  END
>  <group_name>  (1) 
BRI

>  <molecule_index>  (1) 
00739

>  <conformer_index>  (1) 
01

>  <method>  (1) 
openff-1.3.0

>  <basis>  (1) 
smirnoff

>  <program>  (1) 
openmm

>  <initial_energy>  (1) 
-95.13222721128041 kilocalorie / mole

>  <final_energy>  (1) 
-106.36049749117923 kilocalorie / mole

$$$$
