BRI-00649-09
     RDKit          3D

 53 55  0  0  0  0  0  0  0  0999 V2000
    9.2210   -0.9353   -2.7079 C   0  0  0  0  0  0  0  0  0  0  0  0
    8.1363   -1.2678   -1.6869 C   0  0  0  0  0  0  0  0  0  0  0  0
    6.8140   -0.8657   -2.1749 N   0  0  0  0  0  0  0  0  0  0  0  0
    6.4129    0.5336   -1.9197 C   0  0  1  0  0  0  0  0  0  0  0  0
    7.3235    1.0741   -1.6420 H   0  0  0  0  0  0  0  0  0  0  0  0
    5.8955    1.2606   -3.1703 C   0  0  0  0  0  0  0  0  0  0  0  0
    5.4671    0.6954   -0.7104 C   0  0  0  0  0  0  0  0  0  0  0  0
    4.1377    0.1078   -0.9112 N   0  0  0  0  0  0  0  0  0  0  0  0
    3.2463   -0.1342    0.0992 C   0  0  0  0  0  0  0  0  0  0  0  0
    3.2967    0.5428    1.3172 C   0  0  0  0  0  0  0  0  0  0  0  0
    2.3707    0.2439    2.3106 C   0  0  0  0  0  0  0  0  0  0  0  0
    1.4170   -0.7330    2.0444 C   0  0  0  0  0  0  0  0  0  0  0  0
    0.5111   -1.0403    3.0094 F   0  0  0  0  0  0  0  0  0  0  0  0
    1.4144   -1.3812    0.7839 C   0  0  0  0  0  0  0  0  0  0  0  0
    2.3392   -1.0683   -0.1686 N   0  0  0  0  0  0  0  0  0  0  0  0
    0.3631   -2.4660    0.5162 C   0  0  0  0  0  0  0  0  0  0  0  0
    0.4954   -3.4768    1.4275 F   0  0  0  0  0  0  0  0  0  0  0  0
    0.4819   -3.0262   -0.7237 F   0  0  0  0  0  0  0  0  0  0  0  0
   -0.8964   -1.9470    0.6173 F   0  0  0  0  0  0  0  0  0  0  0  0
    5.9587   -1.8270   -2.7215 C   0  0  0  0  0  0  0  0  0  0  0  0
    4.8118   -1.5361   -3.0511 O   0  0  0  0  0  0  0  0  0  0  0  0
    6.4133   -3.1970   -3.0136 C   0  0  0  0  0  0  0  0  0  0  0  0
    6.1230   -4.2787   -2.1417 C   0  0  0  0  0  0  0  0  0  0  0  0
    6.5702   -5.5722   -2.4745 C   0  0  0  0  0  0  0  0  0  0  0  0
    6.3546   -6.6318   -1.6523 F   0  0  0  0  0  0  0  0  0  0  0  0
    7.2791   -5.7843   -3.6608 C   0  0  0  0  0  0  0  0  0  0  0  0
    7.5479   -4.7268   -4.5301 C   0  0  0  0  0  0  0  0  0  0  0  0
    7.1140   -3.4413   -4.2065 C   0  0  0  0  0  0  0  0  0  0  0  0
    5.3535   -4.0711   -0.9110 C   0  0  0  0  0  0  0  0  0  0  0  0
    4.2536   -4.8190   -0.7257 N   0  0  0  0  0  0  0  0  0  0  0  0
    3.5393   -4.6098    0.3763 C   0  0  0  0  0  0  0  0  0  0  0  0
    3.9309   -3.6791    1.3111 C   0  0  0  0  0  0  0  0  0  0  0  0
    5.0753   -2.9564    1.0666 C   0  0  0  0  0  0  0  0  0  0  0  0
    5.8002   -3.1514   -0.0335 N   0  0  0  0  0  0  0  0  0  0  0  0
    9.0437   -1.4645   -3.6474 H   0  0  0  0  0  0  0  0  0  0  0  0
    9.2405    0.1399   -2.9093 H   0  0  0  0  0  0  0  0  0  0  0  0
   10.1990   -1.2351   -2.3202 H   0  0  0  0  0  0  0  0  0  0  0  0
    8.3529   -0.7512   -0.7463 H   0  0  0  0  0  0  0  0  0  0  0  0
    8.1685   -2.3357   -1.4494 H   0  0  0  0  0  0  0  0  0  0  0  0
    5.7683    2.3259   -2.9565 H   0  0  0  0  0  0  0  0  0  0  0  0
    6.6125    1.1549   -3.9898 H   0  0  0  0  0  0  0  0  0  0  0  0
    4.9281    0.8728   -3.4995 H   0  0  0  0  0  0  0  0  0  0  0  0
    5.9434    0.2346    0.1617 H   0  0  0  0  0  0  0  0  0  0  0  0
    5.3532    1.7655   -0.5080 H   0  0  0  0  0  0  0  0  0  0  0  0
    4.0304   -0.5447   -1.7013 H   0  0  0  0  0  0  0  0  0  0  0  0
    4.0460    1.3062    1.4785 H   0  0  0  0  0  0  0  0  0  0  0  0
    2.3784    0.7558    3.2696 H   0  0  0  0  0  0  0  0  0  0  0  0
    7.6138   -6.7888   -3.9006 H   0  0  0  0  0  0  0  0  0  0  0  0
    8.0867   -4.9046   -5.4571 H   0  0  0  0  0  0  0  0  0  0  0  0
    7.3063   -2.6202   -4.8923 H   0  0  0  0  0  0  0  0  0  0  0  0
    2.6367   -5.1906    0.5425 H   0  0  0  0  0  0  0  0  0  0  0  0
    3.3461   -3.5172    2.2073 H   0  0  0  0  0  0  0  0  0  0  0  0
    5.3986   -2.2120    1.7881 H   0  0  0  0  0  0  0  0  0  0  0  0
  1  2  1  0
  1 35  1  0
  1 36  1  0
  1 37  1  0
  2  3  1  0
  2 38  1  0
  2 39  1  0
  3  4  1  0
  3 20  1  0
  4  5  1  1
  4  6  1  0
  4  7  1  0
  6 40  1  0
  6 41  1  0
  6 42  1  0
  7  8  1  0
  7 43  1  0
  7 44  1  0
  8  9  1  0
  8 45  1  0
  9 10  2  0
  9 15  1  0
 10 11  1  0
 10 46  1  0
 11 12  2  0
 11 47  1  0
 12 13  1  0
 12 14  1  0
 14 15  2  0
 14 16  1  0
 16 17  1  0
 16 18  1  0
 16 19  1  0
 20 21  2  0
 20 22  1  0
 22 23  1  0
 22 28  2  0
 23 24  2  0
 23 29  1  0
 24 25  1  0
 24 26  1  0
 26 27  2  0
 26 48  1  0
 27 28  1  0
 27 49  1  0
 28 50  1  0
 29 30  2  0
 29 34  1  0
 30 31  1  0
 31 32  2  0
 31 51  1  0
 32 33  1  0
 32 52  1  0
 33 34  2  0
 33 53  1  0
M  END
>  <group_name>  (1) 
BRI

>  <molecule_index>  (1) 
00649

>  <conformer_index>  (1) 
09

>  <method>  (1) 
openff-1.3.0

>  <basis>  (1) 
smirnoff

>  <program>  (1) 
openmm

>  <initial_energy>  (1) 
-11.393031697115397 kilocalorie / mole

>  <final_energy>  (1) 
-25.407623418894755 kilocalorie / mole

$$$$
