BRI-00593-04
     RDKit          3D

 36 38  0  0  0  0  0  0  0  0999 V2000
    4.8522    4.9334   -2.2923 C   0  0  0  0  0  0  0  0  0  0  0  0
    4.4700    4.4458   -0.9029 C   0  0  0  0  0  0  0  0  0  0  0  0
    3.1519    3.8816   -0.9648 O   0  0  0  0  0  0  0  0  0  0  0  0
    2.6603    3.4697    0.2291 C   0  0  0  0  0  0  0  0  0  0  0  0
    3.2821    3.4562    1.2908 O   0  0  0  0  0  0  0  0  0  0  0  0
    1.3088    2.9118    0.2592 C   0  0  0  0  0  0  0  0  0  0  0  0
    0.2318    3.4452   -0.5028 C   0  0  0  0  0  0  0  0  0  0  0  0
   -0.9917    2.8503   -0.4603 N   0  0  0  0  0  0  0  0  0  0  0  0
   -1.1952    1.7782    0.3077 C   0  0  0  0  0  0  0  0  0  0  0  0
   -0.1820    1.2390    1.0919 C   0  0  0  0  0  0  0  0  0  0  0  0
    1.0796    1.8044    1.0759 C   0  0  0  0  0  0  0  0  0  0  0  0
   -2.4752    1.2254    0.2971 N   0  0  0  0  0  0  0  0  0  0  0  0
   -3.5447    1.8061   -0.5287 C   0  0  0  0  0  0  0  0  0  0  0  0
   -4.7608    0.9475   -0.2047 C   0  0  2  0  0  0  0  0  0  0  0  0
   -5.2668    1.0206    1.2353 C   0  0  0  0  0  0  0  0  0  0  0  0
   -4.3458   -0.1166    0.7945 C   0  0  2  0  0  0  0  0  0  0  0  0
   -2.8648    0.0637    1.1055 C   0  0  0  0  0  0  0  0  0  0  0  0
    0.3540    4.7494   -1.3309 C   0  0  0  0  0  0  0  0  0  0  0  0
   -0.8705    5.2975   -1.6023 F   0  0  0  0  0  0  0  0  0  0  0  0
    1.0396    5.7237   -0.6589 F   0  0  0  0  0  0  0  0  0  0  0  0
    0.9437    4.5125   -2.5406 F   0  0  0  0  0  0  0  0  0  0  0  0
    4.1413    5.6929   -2.6318 H   0  0  0  0  0  0  0  0  0  0  0  0
    4.8448    4.0984   -2.9992 H   0  0  0  0  0  0  0  0  0  0  0  0
    5.8542    5.3714   -2.2734 H   0  0  0  0  0  0  0  0  0  0  0  0
    4.4924    5.2857   -0.1996 H   0  0  0  0  0  0  0  0  0  0  0  0
    5.1901    3.6931   -0.5640 H   0  0  0  0  0  0  0  0  0  0  0  0
   -0.3615    0.3752    1.7174 H   0  0  0  0  0  0  0  0  0  0  0  0
    1.8792    1.3831    1.6842 H   0  0  0  0  0  0  0  0  0  0  0  0
   -3.7293    2.8539   -0.2674 H   0  0  0  0  0  0  0  0  0  0  0  0
   -3.2967    1.7350   -1.5933 H   0  0  0  0  0  0  0  0  0  0  0  0
   -5.4338    0.6894   -1.0281 H   0  0  0  0  0  0  0  0  0  0  0  0
   -4.8434    1.7973    1.8818 H   0  0  0  0  0  0  0  0  0  0  0  0
   -6.3197    0.7856    1.4195 H   0  0  0  0  0  0  0  0  0  0  0  0
   -4.7222   -1.1384    0.6861 H   0  0  0  0  0  0  0  0  0  0  0  0
   -2.3040   -0.8275    0.8041 H   0  0  0  0  0  0  0  0  0  0  0  0
   -2.7201    0.2512    2.1749 H   0  0  0  0  0  0  0  0  0  0  0  0
  1  2  1  0
  1 22  1  0
  1 23  1  0
  1 24  1  0
  2  3  1  0
  2 25  1  0
  2 26  1  0
  3  4  1  0
  4  5  2  0
  4  6  1  0
  6  7  2  0
  6 11  1  0
  7  8  1  0
  7 18  1  0
  8  9  2  0
  9 10  1  0
  9 12  1  0
 10 11  2  0
 10 27  1  0
 11 28  1  0
 12 13  1  0
 12 17  1  0
 13 14  1  0
 13 29  1  0
 13 30  1  0
 14 15  1  0
 14 16  1  0
 14 31  1  6
 15 16  1  0
 15 32  1  0
 15 33  1  0
 16 17  1  0
 16 34  1  6
 17 35  1  0
 17 36  1  0
 18 19  1  0
 18 20  1  0
 18 21  1  0
M  END
>  <group_name>  (1) 
BRI

>  <molecule_index>  (1) 
00593

>  <conformer_index>  (1) 
04

>  <method>  (1) 
openff-1.3.0

>  <basis>  (1) 
smirnoff

>  <program>  (1) 
openmm

>  <initial_energy>  (1) 
24.22372790218668 kilocalorie / mole

>  <final_energy>  (1) 
14.823621399582436 kilocalorie / mole

$$$$
