BRI-00647-00
     RDKit          3D

 40 40  0  0  0  0  0  0  0  0999 V2000
   -3.3237   -1.4106    6.2672 C   0  0  0  0  0  0  0  0  0  0  0  0
   -1.7865   -1.4024    6.3120 C   0  0  0  0  0  0  0  0  0  0  0  0
   -1.3200   -2.7383    6.9000 C   0  0  0  0  0  0  0  0  0  0  0  0
   -1.2666   -0.2736    7.2174 C   0  0  0  0  0  0  0  0  0  0  0  0
   -1.2003   -1.3645    4.9937 O   0  0  0  0  0  0  0  0  0  0  0  0
   -1.4186   -0.2985    4.1884 C   0  0  0  0  0  0  0  0  0  0  0  0
   -2.0873    0.7025    4.4390 O   0  0  0  0  0  0  0  0  0  0  0  0
   -0.8629   -0.3751    2.9412 N   0  0  0  0  0  0  0  0  0  0  0  0
   -1.0943    0.6427    1.9068 C   0  0  1  0  0  0  0  0  0  0  0  0
    0.0108    0.5224    0.8396 C   0  0  0  0  0  0  0  0  0  0  0  0
    0.0409    1.7325   -0.0704 C   0  0  0  0  0  0  0  0  0  0  0  0
    0.7599    2.8816    0.2935 C   0  0  0  0  0  0  0  0  0  0  0  0
    0.8493    3.9810   -0.4753 N   0  0  0  0  0  0  0  0  0  0  0  0
    0.2176    3.9870   -1.6805 C   0  0  0  0  0  0  0  0  0  0  0  0
   -0.5073    2.8527   -2.1081 C   0  0  0  0  0  0  0  0  0  0  0  0
   -0.5947    1.7168   -1.3093 C   0  0  0  0  0  0  0  0  0  0  0  0
    0.3048    5.2347   -2.5747 C   0  0  0  0  0  0  0  0  0  0  0  0
   -0.2385    6.3145   -1.9398 F   0  0  0  0  0  0  0  0  0  0  0  0
    1.6067    5.5106   -2.8806 F   0  0  0  0  0  0  0  0  0  0  0  0
   -0.3644    5.0769   -3.7563 F   0  0  0  0  0  0  0  0  0  0  0  0
   -2.5353    0.5500    1.3550 C   0  0  0  0  0  0  0  0  0  0  0  0
   -3.5357    0.9771    2.1756 O   0  0  0  0  0  0  0  0  0  0  0  0
   -2.7041    0.0889    0.2317 O   0  0  0  0  0  0  0  0  0  0  0  0
   -3.7347   -1.6596    7.2503 H   0  0  0  0  0  0  0  0  0  0  0  0
   -3.7198   -0.4315    5.9847 H   0  0  0  0  0  0  0  0  0  0  0  0
   -3.6779   -2.1515    5.5440 H   0  0  0  0  0  0  0  0  0  0  0  0
   -1.6679   -3.5695    6.2787 H   0  0  0  0  0  0  0  0  0  0  0  0
   -1.7103   -2.8772    7.9130 H   0  0  0  0  0  0  0  0  0  0  0  0
   -0.2270   -2.7742    6.9426 H   0  0  0  0  0  0  0  0  0  0  0  0
   -0.1750   -0.2190    7.1657 H   0  0  0  0  0  0  0  0  0  0  0  0
   -1.5576   -0.4514    8.2572 H   0  0  0  0  0  0  0  0  0  0  0  0
   -1.6782    0.6954    6.9226 H   0  0  0  0  0  0  0  0  0  0  0  0
   -0.4868   -1.2849    2.6910 H   0  0  0  0  0  0  0  0  0  0  0  0
   -0.9942    1.6336    2.3628 H   0  0  0  0  0  0  0  0  0  0  0  0
    0.9840    0.4403    1.3353 H   0  0  0  0  0  0  0  0  0  0  0  0
   -0.1272   -0.3938    0.2546 H   0  0  0  0  0  0  0  0  0  0  0  0
    1.2736    2.8931    1.2504 H   0  0  0  0  0  0  0  0  0  0  0  0
   -1.0126    2.8496   -3.0692 H   0  0  0  0  0  0  0  0  0  0  0  0
   -1.1569    0.8479   -1.6474 H   0  0  0  0  0  0  0  0  0  0  0  0
   -3.1565    1.1147    3.0701 H   0  0  0  0  0  0  0  0  0  0  0  0
  1  2  1  0
  1 24  1  0
  1 25  1  0
  1 26  1  0
  2  3  1  0
  2  4  1  0
  2  5  1  0
  3 27  1  0
  3 28  1  0
  3 29  1  0
  4 30  1  0
  4 31  1  0
  4 32  1  0
  5  6  1  0
  6  7  2  0
  6  8  1  0
  8  9  1  0
  8 33  1  0
  9 10  1  0
  9 21  1  0
  9 34  1  1
 10 11  1  0
 10 35  1  0
 10 36  1  0
 11 12  2  0
 11 16  1  0
 12 13  1  0
 12 37  1  0
 13 14  2  0
 14 15  1  0
 14 17  1  0
 15 16  2  0
 15 38  1  0
 16 39  1  0
 17 18  1  0
 17 19  1  0
 17 20  1  0
 21 22  1  0
 21 23  2  0
 22 40  1  0
M  END
>  <group_name>  (1) 
BRI

>  <molecule_index>  (1) 
00647

>  <conformer_index>  (1) 
00

>  <method>  (1) 
openff-1.3.0

>  <basis>  (1) 
smirnoff

>  <program>  (1) 
openmm

>  <initial_energy>  (1) 
18.2167174863063 kilocalorie / mole

>  <final_energy>  (1) 
10.054580850581628 kilocalorie / mole

$$$$
