BRI-00638-06
     RDKit          3D

 45 45  0  0  0  0  0  0  0  0999 V2000
   -2.2762    6.1515    2.7219 C   0  0  0  0  0  0  0  0  0  0  0  0
   -3.0570    5.2769    1.7533 C   0  0  0  0  0  0  0  0  0  0  0  0
   -2.5237    5.4576    0.4334 O   0  0  0  0  0  0  0  0  0  0  0  0
   -3.0980    4.5567   -0.5319 C   0  0  0  0  0  0  0  0  0  0  0  0
   -2.0646    4.2950   -1.6318 C   0  0  0  0  0  0  0  0  0  0  0  0
   -0.7787    3.8657   -1.0636 N   0  0  0  0  0  0  0  0  0  0  0  0
   -0.8083    2.3349   -0.3118 S   0  0  0  0  0  0  0  0  0  0  0  0
   -1.7916    1.4806   -1.0014 O   0  0  0  0  0  0  0  0  0  0  0  0
   -1.1298    2.5510    1.0999 O   0  0  0  0  0  0  0  0  0  0  0  0
    0.8802    1.7325   -0.5534 C   0  0  0  0  0  0  0  0  0  0  0  0
    1.9125    2.6902    0.0922 C   0  0  0  0  0  0  0  0  0  0  0  0
    1.2279    1.5703   -2.0501 C   0  0  0  0  0  0  0  0  0  0  0  0
    0.8087    0.3789    0.1435 C   0  0  0  0  0  0  0  0  0  0  0  0
    1.5319    0.1787    1.1113 O   0  0  0  0  0  0  0  0  0  0  0  0
   -0.0496   -0.5899   -0.3219 N   0  0  0  0  0  0  0  0  0  0  0  0
   -0.1362   -1.8849    0.1451 C   0  0  0  0  0  0  0  0  0  0  0  0
   -1.3900   -2.4971    0.1111 C   0  0  0  0  0  0  0  0  0  0  0  0
   -1.5371   -3.8130    0.5274 C   0  0  0  0  0  0  0  0  0  0  0  0
   -0.3947   -4.4772    0.9537 C   0  0  0  0  0  0  0  0  0  0  0  0
    0.8573   -3.8297    0.9496 C   0  0  0  0  0  0  0  0  0  0  0  0
    0.9649   -2.5422    0.5305 N   0  0  0  0  0  0  0  0  0  0  0  0
    2.0917   -4.6161    1.4120 C   0  0  0  0  0  0  0  0  0  0  0  0
    1.9508   -4.9663    2.7249 F   0  0  0  0  0  0  0  0  0  0  0  0
    2.2034   -5.7669    0.6830 F   0  0  0  0  0  0  0  0  0  0  0  0
    3.2596   -3.9205    1.2750 F   0  0  0  0  0  0  0  0  0  0  0  0
   -2.3574    7.2028    2.4304 H   0  0  0  0  0  0  0  0  0  0  0  0
   -2.6732    6.0342    3.7343 H   0  0  0  0  0  0  0  0  0  0  0  0
   -1.2215    5.8603    2.7231 H   0  0  0  0  0  0  0  0  0  0  0  0
   -4.1145    5.5597    1.7723 H   0  0  0  0  0  0  0  0  0  0  0  0
   -2.9733    4.2299    2.0633 H   0  0  0  0  0  0  0  0  0  0  0  0
   -3.9961    5.0009   -0.9718 H   0  0  0  0  0  0  0  0  0  0  0  0
   -3.3883    3.6098   -0.0643 H   0  0  0  0  0  0  0  0  0  0  0  0
   -1.9141    5.2273   -2.1862 H   0  0  0  0  0  0  0  0  0  0  0  0
   -2.4479    3.5536   -2.3416 H   0  0  0  0  0  0  0  0  0  0  0  0
   -0.5738    4.4721   -0.2725 H   0  0  0  0  0  0  0  0  0  0  0  0
    2.9211    2.2686    0.0235 H   0  0  0  0  0  0  0  0  0  0  0  0
    1.9136    3.6632   -0.4092 H   0  0  0  0  0  0  0  0  0  0  0  0
    1.6831    2.8494    1.1518 H   0  0  0  0  0  0  0  0  0  0  0  0
    0.4960    0.9357   -2.5603 H   0  0  0  0  0  0  0  0  0  0  0  0
    1.2372    2.5432   -2.5528 H   0  0  0  0  0  0  0  0  0  0  0  0
    2.2165    1.1127   -2.1640 H   0  0  0  0  0  0  0  0  0  0  0  0
   -0.8437   -0.2484   -0.8564 H   0  0  0  0  0  0  0  0  0  0  0  0
   -2.2541   -1.9369   -0.2294 H   0  0  0  0  0  0  0  0  0  0  0  0
   -2.5078   -4.3041    0.5212 H   0  0  0  0  0  0  0  0  0  0  0  0
   -0.4610   -5.5074    1.2913 H   0  0  0  0  0  0  0  0  0  0  0  0
  1  2  1  0
  1 26  1  0
  1 27  1  0
  1 28  1  0
  2  3  1  0
  2 29  1  0
  2 30  1  0
  3  4  1  0
  4  5  1  0
  4 31  1  0
  4 32  1  0
  5  6  1  0
  5 33  1  0
  5 34  1  0
  6  7  1  0
  6 35  1  0
  7  8  2  0
  7  9  2  0
  7 10  1  0
 10 11  1  0
 10 12  1  0
 10 13  1  0
 11 36  1  0
 11 37  1  0
 11 38  1  0
 12 39  1  0
 12 40  1  0
 12 41  1  0
 13 14  2  0
 13 15  1  0
 15 16  1  0
 15 42  1  0
 16 17  2  0
 16 21  1  0
 17 18  1  0
 17 43  1  0
 18 19  2  0
 18 44  1  0
 19 20  1  0
 19 45  1  0
 20 21  2  0
 20 22  1  0
 22 23  1  0
 22 24  1  0
 22 25  1  0
M  END
>  <group_name>  (1) 
BRI

>  <molecule_index>  (1) 
00638

>  <conformer_index>  (1) 
06

>  <method>  (1) 
openff-1.3.0

>  <basis>  (1) 
smirnoff

>  <program>  (1) 
openmm

>  <initial_energy>  (1) 
-100.02774744440215 kilocalorie / mole

>  <final_energy>  (1) 
-114.42480513167796 kilocalorie / mole

$$$$
