BRI-00593-00
     RDKit          3D

 36 38  0  0  0  0  0  0  0  0999 V2000
    4.5841    4.8081   -2.2967 C   0  0  0  0  0  0  0  0  0  0  0  0
    4.7118    3.6730   -1.2849 C   0  0  0  0  0  0  0  0  0  0  0  0
    3.4355    3.0407   -1.0786 O   0  0  0  0  0  0  0  0  0  0  0  0
    2.5994    3.6760   -0.2094 C   0  0  0  0  0  0  0  0  0  0  0  0
    2.8875    4.6505    0.4779 O   0  0  0  0  0  0  0  0  0  0  0  0
    1.2787    3.0822   -0.0313 C   0  0  0  0  0  0  0  0  0  0  0  0
    0.0959    3.8585    0.1184 C   0  0  0  0  0  0  0  0  0  0  0  0
   -1.1004    3.2401    0.3191 N   0  0  0  0  0  0  0  0  0  0  0  0
   -1.1730    1.9087    0.3644 C   0  0  0  0  0  0  0  0  0  0  0  0
   -0.0476    1.1094    0.1958 C   0  0  0  0  0  0  0  0  0  0  0  0
    1.1900    1.6919   -0.0067 C   0  0  0  0  0  0  0  0  0  0  0  0
   -2.4327    1.3503    0.5775 N   0  0  0  0  0  0  0  0  0  0  0  0
   -2.6809   -0.0949    0.6440 C   0  0  0  0  0  0  0  0  0  0  0  0
   -4.1865   -0.1969    0.8565 C   0  0  2  0  0  0  0  0  0  0  0  0
   -5.0617    0.3224   -0.2839 C   0  0  0  0  0  0  0  0  0  0  0  0
   -4.7590    1.2068    0.9249 C   0  0  2  0  0  0  0  0  0  0  0  0
   -3.6184    2.2023    0.7545 C   0  0  0  0  0  0  0  0  0  0  0  0
    0.0821    5.4009   -0.0332 C   0  0  0  0  0  0  0  0  0  0  0  0
   -1.1791    5.8751   -0.2763 F   0  0  0  0  0  0  0  0  0  0  0  0
    0.5076    6.0168    1.1095 F   0  0  0  0  0  0  0  0  0  0  0  0
    0.8288    5.8158   -1.1019 F   0  0  0  0  0  0  0  0  0  0  0  0
    3.9210    5.5903   -1.9146 H   0  0  0  0  0  0  0  0  0  0  0  0
    4.1798    4.4281   -3.2396 H   0  0  0  0  0  0  0  0  0  0  0  0
    5.5663    5.2499   -2.4871 H   0  0  0  0  0  0  0  0  0  0  0  0
    5.1228    4.0566   -0.3442 H   0  0  0  0  0  0  0  0  0  0  0  0
    5.4185    2.9294   -1.6661 H   0  0  0  0  0  0  0  0  0  0  0  0
   -0.1220    0.0309    0.2257 H   0  0  0  0  0  0  0  0  0  0  0  0
    2.0763    1.0712   -0.1305 H   0  0  0  0  0  0  0  0  0  0  0  0
   -2.3924   -0.5956   -0.2865 H   0  0  0  0  0  0  0  0  0  0  0  0
   -2.1488   -0.5440    1.4895 H   0  0  0  0  0  0  0  0  0  0  0  0
   -4.5524   -0.9655    1.5441 H   0  0  0  0  0  0  0  0  0  0  0  0
   -4.5695    0.5729   -1.2301 H   0  0  0  0  0  0  0  0  0  0  0  0
   -6.0736   -0.0835   -0.3794 H   0  0  0  0  0  0  0  0  0  0  0  0
   -5.5341    1.4443    1.6600 H   0  0  0  0  0  0  0  0  0  0  0  0
   -3.5184    2.8284    1.6478 H   0  0  0  0  0  0  0  0  0  0  0  0
   -3.7878    2.8406   -0.1197 H   0  0  0  0  0  0  0  0  0  0  0  0
  1  2  1  0
  1 22  1  0
  1 23  1  0
  1 24  1  0
  2  3  1  0
  2 25  1  0
  2 26  1  0
  3  4  1  0
  4  5  2  0
  4  6  1  0
  6  7  2  0
  6 11  1  0
  7  8  1  0
  7 18  1  0
  8  9  2  0
  9 10  1  0
  9 12  1  0
 10 11  2  0
 10 27  1  0
 11 28  1  0
 12 13  1  0
 12 17  1  0
 13 14  1  0
 13 29  1  0
 13 30  1  0
 14 15  1  0
 14 16  1  0
 14 31  1  1
 15 16  1  0
 15 32  1  0
 15 33  1  0
 16 17  1  0
 16 34  1  1
 17 35  1  0
 17 36  1  0
 18 19  1  0
 18 20  1  0
 18 21  1  0
M  END
>  <group_name>  (1) 
BRI

>  <molecule_index>  (1) 
00593

>  <conformer_index>  (1) 
00

>  <method>  (1) 
openff-1.3.0

>  <basis>  (1) 
smirnoff

>  <program>  (1) 
openmm

>  <initial_energy>  (1) 
26.116093472058534 kilocalorie / mole

>  <final_energy>  (1) 
16.164268015818067 kilocalorie / mole

$$$$
