BRI-00638-05
     RDKit          3D

 45 45  0  0  0  0  0  0  0  0999 V2000
   -2.7445    5.0929    2.8418 C   0  0  0  0  0  0  0  0  0  0  0  0
   -2.1428    6.2333    2.0311 C   0  0  0  0  0  0  0  0  0  0  0  0
   -2.4365    6.0254    0.6388 O   0  0  0  0  0  0  0  0  0  0  0  0
   -1.2770    5.9093   -0.2120 C   0  0  0  0  0  0  0  0  0  0  0  0
   -0.6962    4.4967   -0.1288 C   0  0  0  0  0  0  0  0  0  0  0  0
   -1.7502    3.5332   -0.4666 N   0  0  0  0  0  0  0  0  0  0  0  0
   -1.4216    1.9194   -0.0323 S   0  0  0  0  0  0  0  0  0  0  0  0
   -2.6666    1.3851    0.5222 O   0  0  0  0  0  0  0  0  0  0  0  0
   -0.3017    1.8994    0.9202 O   0  0  0  0  0  0  0  0  0  0  0  0
   -0.9854    1.1341   -1.6051 C   0  0  0  0  0  0  0  0  0  0  0  0
    0.3630    1.6369   -2.1649 C   0  0  0  0  0  0  0  0  0  0  0  0
   -2.0861    1.3792   -2.6679 C   0  0  0  0  0  0  0  0  0  0  0  0
   -0.8895   -0.3263   -1.1812 C   0  0  0  0  0  0  0  0  0  0  0  0
   -1.5160   -1.1612   -1.8213 O   0  0  0  0  0  0  0  0  0  0  0  0
    0.0127   -0.7136   -0.2211 N   0  0  0  0  0  0  0  0  0  0  0  0
    0.3169   -1.9783    0.2317 C   0  0  0  0  0  0  0  0  0  0  0  0
   -0.3948   -3.1549   -0.0446 C   0  0  0  0  0  0  0  0  0  0  0  0
    0.0274   -4.3627    0.4930 C   0  0  0  0  0  0  0  0  0  0  0  0
    1.1557   -4.3449    1.3010 C   0  0  0  0  0  0  0  0  0  0  0  0
    1.8337   -3.1381    1.5600 C   0  0  0  0  0  0  0  0  0  0  0  0
    1.3975   -1.9695    1.0181 N   0  0  0  0  0  0  0  0  0  0  0  0
    3.0757   -3.1732    2.4611 C   0  0  0  0  0  0  0  0  0  0  0  0
    2.7358   -3.6369    3.7001 F   0  0  0  0  0  0  0  0  0  0  0  0
    3.6619   -1.9476    2.6108 F   0  0  0  0  0  0  0  0  0  0  0  0
    4.0057   -4.0233    1.9332 F   0  0  0  0  0  0  0  0  0  0  0  0
   -2.5646    5.2575    3.9081 H   0  0  0  0  0  0  0  0  0  0  0  0
   -3.8242    5.0393    2.6727 H   0  0  0  0  0  0  0  0  0  0  0  0
   -2.2909    4.1393    2.5554 H   0  0  0  0  0  0  0  0  0  0  0  0
   -2.5824    7.1821    2.3544 H   0  0  0  0  0  0  0  0  0  0  0  0
   -1.0647    6.2840    2.2169 H   0  0  0  0  0  0  0  0  0  0  0  0
   -0.5133    6.6425    0.0667 H   0  0  0  0  0  0  0  0  0  0  0  0
   -1.5720    6.1161   -1.2455 H   0  0  0  0  0  0  0  0  0  0  0  0
   -0.3308    4.3383    0.8918 H   0  0  0  0  0  0  0  0  0  0  0  0
    0.1557    4.3962   -0.8087 H   0  0  0  0  0  0  0  0  0  0  0  0
   -2.5820    3.7273    0.0869 H   0  0  0  0  0  0  0  0  0  0  0  0
    0.2938    2.6915   -2.4496 H   0  0  0  0  0  0  0  0  0  0  0  0
    1.1622    1.5355   -1.4230 H   0  0  0  0  0  0  0  0  0  0  0  0
    0.6448    1.0605   -3.0525 H   0  0  0  0  0  0  0  0  0  0  0  0
   -3.0608    1.0431   -2.2971 H   0  0  0  0  0  0  0  0  0  0  0  0
   -2.1638    2.4426   -2.9163 H   0  0  0  0  0  0  0  0  0  0  0  0
   -1.8633    0.8299   -3.5887 H   0  0  0  0  0  0  0  0  0  0  0  0
    0.5490    0.0141    0.2431 H   0  0  0  0  0  0  0  0  0  0  0  0
   -1.2848   -3.1564   -0.6607 H   0  0  0  0  0  0  0  0  0  0  0  0
   -0.5106   -5.2864    0.2909 H   0  0  0  0  0  0  0  0  0  0  0  0
    1.5190   -5.2684    1.7424 H   0  0  0  0  0  0  0  0  0  0  0  0
  1  2  1  0
  1 26  1  0
  1 27  1  0
  1 28  1  0
  2  3  1  0
  2 29  1  0
  2 30  1  0
  3  4  1  0
  4  5  1  0
  4 31  1  0
  4 32  1  0
  5  6  1  0
  5 33  1  0
  5 34  1  0
  6  7  1  0
  6 35  1  0
  7  8  2  0
  7  9  2  0
  7 10  1  0
 10 11  1  0
 10 12  1  0
 10 13  1  0
 11 36  1  0
 11 37  1  0
 11 38  1  0
 12 39  1  0
 12 40  1  0
 12 41  1  0
 13 14  2  0
 13 15  1  0
 15 16  1  0
 15 42  1  0
 16 17  2  0
 16 21  1  0
 17 18  1  0
 17 43  1  0
 18 19  2  0
 18 44  1  0
 19 20  1  0
 19 45  1  0
 20 21  2  0
 20 22  1  0
 22 23  1  0
 22 24  1  0
 22 25  1  0
M  END
>  <group_name>  (1) 
BRI

>  <molecule_index>  (1) 
00638

>  <conformer_index>  (1) 
05

>  <method>  (1) 
openff-1.3.0

>  <basis>  (1) 
smirnoff

>  <program>  (1) 
openmm

>  <initial_energy>  (1) 
-102.6508705477321 kilocalorie / mole

>  <final_energy>  (1) 
-119.28194925755705 kilocalorie / mole

$$$$
