BRI-00647-04
     RDKit          3D

 40 40  0  0  0  0  0  0  0  0999 V2000
   -0.5146   -1.4243    6.6569 C   0  0  0  0  0  0  0  0  0  0  0  0
   -1.9808   -1.4190    6.1939 C   0  0  0  0  0  0  0  0  0  0  0  0
   -2.8723   -1.3216    7.4363 C   0  0  0  0  0  0  0  0  0  0  0  0
   -2.3320   -2.7209    5.4546 C   0  0  0  0  0  0  0  0  0  0  0  0
   -2.3102   -0.2452    5.4222 O   0  0  0  0  0  0  0  0  0  0  0  0
   -1.6983   -0.0263    4.2317 C   0  0  0  0  0  0  0  0  0  0  0  0
   -0.8312   -0.7171    3.7094 O   0  0  0  0  0  0  0  0  0  0  0  0
   -2.1316    1.0952    3.5755 N   0  0  0  0  0  0  0  0  0  0  0  0
   -1.8518    1.3811    2.1570 C   0  0  1  0  0  0  0  0  0  0  0  0
   -0.3733    1.7921    1.9840 C   0  0  0  0  0  0  0  0  0  0  0  0
   -0.1193    2.4634    0.6505 C   0  0  0  0  0  0  0  0  0  0  0  0
   -0.4961    3.7977    0.4372 C   0  0  0  0  0  0  0  0  0  0  0  0
   -0.2815    4.4582   -0.7146 N   0  0  0  0  0  0  0  0  0  0  0  0
    0.3486    3.8090   -1.7309 C   0  0  0  0  0  0  0  0  0  0  0  0
    0.7692    2.4704   -1.5667 C   0  0  0  0  0  0  0  0  0  0  0  0
    0.5424    1.7918   -0.3733 C   0  0  0  0  0  0  0  0  0  0  0  0
    0.6020    4.5444   -3.0572 C   0  0  0  0  0  0  0  0  0  0  0  0
    1.3889    5.6410   -2.8509 F   0  0  0  0  0  0  0  0  0  0  0  0
   -0.5791    4.9449   -3.6132 F   0  0  0  0  0  0  0  0  0  0  0  0
    1.2366    3.7560   -3.9764 F   0  0  0  0  0  0  0  0  0  0  0  0
   -2.3336    0.2354    1.2379 C   0  0  0  0  0  0  0  0  0  0  0  0
   -1.4515   -0.4415    0.4625 O   0  0  0  0  0  0  0  0  0  0  0  0
   -3.5328   -0.0093    1.2656 O   0  0  0  0  0  0  0  0  0  0  0  0
   -0.2526   -0.4564    7.0947 H   0  0  0  0  0  0  0  0  0  0  0  0
    0.1650   -1.6248    5.8241 H   0  0  0  0  0  0  0  0  0  0  0  0
   -0.3523   -2.2030    7.4082 H   0  0  0  0  0  0  0  0  0  0  0  0
   -2.6564   -0.4012    7.9878 H   0  0  0  0  0  0  0  0  0  0  0  0
   -3.9277   -1.3098    7.1465 H   0  0  0  0  0  0  0  0  0  0  0  0
   -2.7065   -2.1724    8.1043 H   0  0  0  0  0  0  0  0  0  0  0  0
   -1.6376   -2.9106    4.6315 H   0  0  0  0  0  0  0  0  0  0  0  0
   -3.3459   -2.6630    5.0474 H   0  0  0  0  0  0  0  0  0  0  0  0
   -2.2770   -3.5757    6.1353 H   0  0  0  0  0  0  0  0  0  0  0  0
   -2.9789    1.4764    3.9842 H   0  0  0  0  0  0  0  0  0  0  0  0
   -2.4599    2.2447    1.8742 H   0  0  0  0  0  0  0  0  0  0  0  0
    0.2781    0.9194    2.1004 H   0  0  0  0  0  0  0  0  0  0  0  0
   -0.1017    2.4937    2.7796 H   0  0  0  0  0  0  0  0  0  0  0  0
   -0.9932    4.3328    1.2410 H   0  0  0  0  0  0  0  0  0  0  0  0
    1.2771    1.9485   -2.3718 H   0  0  0  0  0  0  0  0  0  0  0  0
    0.8681    0.7606   -0.2496 H   0  0  0  0  0  0  0  0  0  0  0  0
   -1.9714   -1.1433    0.0433 H   0  0  0  0  0  0  0  0  0  0  0  0
  1  2  1  0
  1 24  1  0
  1 25  1  0
  1 26  1  0
  2  3  1  0
  2  4  1  0
  2  5  1  0
  3 27  1  0
  3 28  1  0
  3 29  1  0
  4 30  1  0
  4 31  1  0
  4 32  1  0
  5  6  1  0
  6  7  2  0
  6  8  1  0
  8  9  1  0
  8 33  1  0
  9 10  1  0
  9 21  1  0
  9 34  1  6
 10 11  1  0
 10 35  1  0
 10 36  1  0
 11 12  2  0
 11 16  1  0
 12 13  1  0
 12 37  1  0
 13 14  2  0
 14 15  1  0
 14 17  1  0
 15 16  2  0
 15 38  1  0
 16 39  1  0
 17 18  1  0
 17 19  1  0
 17 20  1  0
 21 22  1  0
 21 23  2  0
 22 40  1  0
M  END
>  <group_name>  (1) 
BRI

>  <molecule_index>  (1) 
00647

>  <conformer_index>  (1) 
04

>  <method>  (1) 
openff-1.3.0

>  <basis>  (1) 
smirnoff

>  <program>  (1) 
openmm

>  <initial_energy>  (1) 
24.356989199031712 kilocalorie / mole

>  <final_energy>  (1) 
14.145804438105106 kilocalorie / mole

$$$$
