BRI-00649-00
     RDKit          3D

 53 55  0  0  0  0  0  0  0  0999 V2000
    8.1342   -1.7831    1.9839 C   0  0  0  0  0  0  0  0  0  0  0  0
    6.6562   -2.0948    2.2058 C   0  0  0  0  0  0  0  0  0  0  0  0
    5.9667   -2.2552    0.9205 N   0  0  0  0  0  0  0  0  0  0  0  0
    5.3299   -1.0382    0.3712 C   0  0  1  0  0  0  0  0  0  0  0  0
    5.7025   -0.1984    0.9663 H   0  0  0  0  0  0  0  0  0  0  0  0
    5.7299   -0.6962   -1.0710 C   0  0  0  0  0  0  0  0  0  0  0  0
    3.8046   -1.0470    0.5722 C   0  0  0  0  0  0  0  0  0  0  0  0
    3.2322    0.3061    0.4245 N   0  0  0  0  0  0  0  0  0  0  0  0
    2.5147    0.7212   -0.6817 C   0  0  0  0  0  0  0  0  0  0  0  0
    2.0061    2.0161   -0.6955 C   0  0  0  0  0  0  0  0  0  0  0  0
    1.2872    2.4696   -1.7965 C   0  0  0  0  0  0  0  0  0  0  0  0
    1.0986    1.5957   -2.8614 C   0  0  0  0  0  0  0  0  0  0  0  0
    0.3993    2.0265   -3.9439 F   0  0  0  0  0  0  0  0  0  0  0  0
    1.6359    0.2869   -2.7923 C   0  0  0  0  0  0  0  0  0  0  0  0
    2.3379   -0.1284   -1.6971 N   0  0  0  0  0  0  0  0  0  0  0  0
    1.4092   -0.6655   -3.9738 C   0  0  0  0  0  0  0  0  0  0  0  0
    0.0723   -0.8435   -4.1920 F   0  0  0  0  0  0  0  0  0  0  0  0
    1.9773   -0.1599   -5.1084 F   0  0  0  0  0  0  0  0  0  0  0  0
    1.9472   -1.9036   -3.7626 F   0  0  0  0  0  0  0  0  0  0  0  0
    6.0265   -3.5075    0.2922 C   0  0  0  0  0  0  0  0  0  0  0  0
    6.5988   -4.4301    0.8723 O   0  0  0  0  0  0  0  0  0  0  0  0
    5.4099   -3.8346   -1.0050 C   0  0  0  0  0  0  0  0  0  0  0  0
    6.2063   -4.0800   -2.1576 C   0  0  0  0  0  0  0  0  0  0  0  0
    5.5783   -4.3980   -3.3774 C   0  0  0  0  0  0  0  0  0  0  0  0
    6.2946   -4.5861   -4.5164 F   0  0  0  0  0  0  0  0  0  0  0  0
    4.1867   -4.5026   -3.4415 C   0  0  0  0  0  0  0  0  0  0  0  0
    3.4056   -4.3167   -2.3019 C   0  0  0  0  0  0  0  0  0  0  0  0
    4.0168   -3.9974   -1.0904 C   0  0  0  0  0  0  0  0  0  0  0  0
    7.6717   -4.0278   -2.0933 C   0  0  0  0  0  0  0  0  0  0  0  0
    8.2488   -2.9055   -1.6250 N   0  0  0  0  0  0  0  0  0  0  0  0
    9.5761   -2.8830   -1.5388 C   0  0  0  0  0  0  0  0  0  0  0  0
   10.3367   -3.9604   -1.9299 C   0  0  0  0  0  0  0  0  0  0  0  0
    9.6857   -5.0699   -2.4181 C   0  0  0  0  0  0  0  0  0  0  0  0
    8.3596   -5.1070   -2.5081 N   0  0  0  0  0  0  0  0  0  0  0  0
    8.6353   -1.6483    2.9466 H   0  0  0  0  0  0  0  0  0  0  0  0
    8.6202   -2.6066    1.4517 H   0  0  0  0  0  0  0  0  0  0  0  0
    8.2473   -0.8679    1.3953 H   0  0  0  0  0  0  0  0  0  0  0  0
    6.1968   -1.2880    2.7854 H   0  0  0  0  0  0  0  0  0  0  0  0
    6.5570   -2.9996    2.8154 H   0  0  0  0  0  0  0  0  0  0  0  0
    5.3749    0.3045   -1.3324 H   0  0  0  0  0  0  0  0  0  0  0  0
    6.8182   -0.6973   -1.1707 H   0  0  0  0  0  0  0  0  0  0  0  0
    5.2957   -1.3913   -1.7923 H   0  0  0  0  0  0  0  0  0  0  0  0
    3.3357   -1.7431   -0.1244 H   0  0  0  0  0  0  0  0  0  0  0  0
    3.5802   -1.4143    1.5789 H   0  0  0  0  0  0  0  0  0  0  0  0
    3.2719    0.9407    1.2141 H   0  0  0  0  0  0  0  0  0  0  0  0
    2.1781    2.6675    0.1521 H   0  0  0  0  0  0  0  0  0  0  0  0
    0.8800    3.4768   -1.8372 H   0  0  0  0  0  0  0  0  0  0  0  0
    3.7170   -4.7379   -4.3914 H   0  0  0  0  0  0  0  0  0  0  0  0
    2.3250   -4.4176   -2.3598 H   0  0  0  0  0  0  0  0  0  0  0  0
    3.4027   -3.8896   -0.2015 H   0  0  0  0  0  0  0  0  0  0  0  0
   10.0665   -1.9941   -1.1528 H   0  0  0  0  0  0  0  0  0  0  0  0
   11.4164   -3.9370   -1.8566 H   0  0  0  0  0  0  0  0  0  0  0  0
   10.2633   -5.9325   -2.7374 H   0  0  0  0  0  0  0  0  0  0  0  0
  1  2  1  0
  1 35  1  0
  1 36  1  0
  1 37  1  0
  2  3  1  0
  2 38  1  0
  2 39  1  0
  3  4  1  0
  3 20  1  0
  4  5  1  1
  4  6  1  0
  4  7  1  0
  6 40  1  0
  6 41  1  0
  6 42  1  0
  7  8  1  0
  7 43  1  0
  7 44  1  0
  8  9  1  0
  8 45  1  0
  9 10  2  0
  9 15  1  0
 10 11  1  0
 10 46  1  0
 11 12  2  0
 11 47  1  0
 12 13  1  0
 12 14  1  0
 14 15  2  0
 14 16  1  0
 16 17  1  0
 16 18  1  0
 16 19  1  0
 20 21  2  0
 20 22  1  0
 22 23  1  0
 22 28  2  0
 23 24  2  0
 23 29  1  0
 24 25  1  0
 24 26  1  0
 26 27  2  0
 26 48  1  0
 27 28  1  0
 27 49  1  0
 28 50  1  0
 29 30  2  0
 29 34  1  0
 30 31  1  0
 31 32  2  0
 31 51  1  0
 32 33  1  0
 32 52  1  0
 33 34  2  0
 33 53  1  0
M  END
>  <group_name>  (1) 
BRI

>  <molecule_index>  (1) 
00649

>  <conformer_index>  (1) 
00

>  <method>  (1) 
openff-1.3.0

>  <basis>  (1) 
smirnoff

>  <program>  (1) 
openmm

>  <initial_energy>  (1) 
-6.097006674207723 kilocalorie / mole

>  <final_energy>  (1) 
-15.918512113429475 kilocalorie / mole

$$$$
