BRI-01545-06
     RDKit          3D

 40 41  0  0  0  0  0  0  0  0999 V2000
    0.0705    8.4914   -1.9727 C   0  0  0  0  0  0  0  0  0  0  0  0
   -0.3847    7.0647   -1.6301 C   0  0  0  0  0  0  0  0  0  0  0  0
   -1.5822    7.0795   -0.6665 C   0  0  0  0  0  0  0  0  0  0  0  0
   -0.8236    6.3715   -2.9237 C   0  0  0  0  0  0  0  0  0  0  0  0
    0.6967    6.2474   -1.1414 O   0  0  0  0  0  0  0  0  0  0  0  0
    1.3080    6.5402    0.0449 C   0  0  0  0  0  0  0  0  0  0  0  0
    1.1223    7.5389    0.7366 O   0  0  0  0  0  0  0  0  0  0  0  0
    2.3227    5.5215    0.5970 C   0  0  2  0  0  0  0  0  0  0  0  0
    2.1027    5.3630    1.6574 H   0  0  0  0  0  0  0  0  0  0  0  0
    3.7459    6.0859    0.4379 C   0  0  0  0  0  0  0  0  0  0  0  0
    4.6571    4.8601    0.4612 C   0  0  0  0  0  0  0  0  0  0  0  0
    3.7479    3.8220   -0.1526 C   0  0  0  0  0  0  0  0  0  0  0  0
    4.1982    2.7600   -0.5666 O   0  0  0  0  0  0  0  0  0  0  0  0
    2.4268    4.2154   -0.0759 N   0  0  0  0  0  0  0  0  0  0  0  0
    1.3083    3.3932   -0.3731 C   0  0  0  0  0  0  0  0  0  0  0  0
    1.3817    2.3672   -1.3215 C   0  0  0  0  0  0  0  0  0  0  0  0
    0.2394    1.6158   -1.5901 C   0  0  0  0  0  0  0  0  0  0  0  0
   -0.9756    1.8767   -0.9293 C   0  0  0  0  0  0  0  0  0  0  0  0
   -1.0561    2.8711   -0.0067 N   0  0  0  0  0  0  0  0  0  0  0  0
    0.0534    3.5929    0.2508 C   0  0  0  0  0  0  0  0  0  0  0  0
   -2.1986    1.0211   -1.2795 C   0  0  0  0  0  0  0  0  0  0  0  0
   -3.3147    1.3743   -0.5749 F   0  0  0  0  0  0  0  0  0  0  0  0
   -2.4802    1.1465   -2.6101 F   0  0  0  0  0  0  0  0  0  0  0  0
   -1.9313   -0.2935   -1.0243 F   0  0  0  0  0  0  0  0  0  0  0  0
   -0.7073    9.0164   -2.5355 H   0  0  0  0  0  0  0  0  0  0  0  0
    0.2718    9.0723   -1.0686 H   0  0  0  0  0  0  0  0  0  0  0  0
    0.9804    8.4625   -2.5794 H   0  0  0  0  0  0  0  0  0  0  0  0
   -1.8500    6.0583   -0.3779 H   0  0  0  0  0  0  0  0  0  0  0  0
   -2.4511    7.5431   -1.1434 H   0  0  0  0  0  0  0  0  0  0  0  0
   -1.3583    7.6512    0.2381 H   0  0  0  0  0  0  0  0  0  0  0  0
    0.0066    6.3343   -3.6359 H   0  0  0  0  0  0  0  0  0  0  0  0
   -1.6572    6.9055   -3.3901 H   0  0  0  0  0  0  0  0  0  0  0  0
   -1.1431    5.3453   -2.7150 H   0  0  0  0  0  0  0  0  0  0  0  0
    3.9953    6.8223    1.2095 H   0  0  0  0  0  0  0  0  0  0  0  0
    3.8331    6.5684   -0.5432 H   0  0  0  0  0  0  0  0  0  0  0  0
    4.9176    4.5658    1.4812 H   0  0  0  0  0  0  0  0  0  0  0  0
    5.5589    5.0058   -0.1393 H   0  0  0  0  0  0  0  0  0  0  0  0
    2.2936    2.1493   -1.8700 H   0  0  0  0  0  0  0  0  0  0  0  0
    0.2850    0.8183   -2.3267 H   0  0  0  0  0  0  0  0  0  0  0  0
   -0.0486    4.3725    0.9984 H   0  0  0  0  0  0  0  0  0  0  0  0
  1  2  1  0
  1 25  1  0
  1 26  1  0
  1 27  1  0
  2  3  1  0
  2  4  1  0
  2  5  1  0
  3 28  1  0
  3 29  1  0
  3 30  1  0
  4 31  1  0
  4 32  1  0
  4 33  1  0
  5  6  1  0
  6  7  2  0
  6  8  1  0
  8  9  1  1
  8 10  1  0
  8 14  1  0
 10 11  1  0
 10 34  1  0
 10 35  1  0
 11 12  1  0
 11 36  1  0
 11 37  1  0
 12 13  2  0
 12 14  1  0
 14 15  1  0
 15 16  2  0
 15 20  1  0
 16 17  1  0
 16 38  1  0
 17 18  2  0
 17 39  1  0
 18 19  1  0
 18 21  1  0
 19 20  2  0
 20 40  1  0
 21 22  1  0
 21 23  1  0
 21 24  1  0
M  END
>  <group_name>  (1) 
BRI

>  <molecule_index>  (1) 
01545

>  <conformer_index>  (1) 
06

>  <method>  (1) 
openff-1.3.0

>  <basis>  (1) 
smirnoff

>  <program>  (1) 
openmm

>  <initial_energy>  (1) 
109.5991647390932 kilocalorie / mole

>  <final_energy>  (1) 
99.30433683078994 kilocalorie / mole

$$$$
