BRI-00647-07
     RDKit          3D

 40 40  0  0  0  0  0  0  0  0999 V2000
   -0.1320   -1.8430    4.5069 C   0  0  0  0  0  0  0  0  0  0  0  0
   -0.8973   -0.8340    5.3789 C   0  0  0  0  0  0  0  0  0  0  0  0
   -0.0056   -0.4580    6.5668 C   0  0  0  0  0  0  0  0  0  0  0  0
   -2.1939   -1.4500    5.9303 C   0  0  0  0  0  0  0  0  0  0  0  0
   -1.1315    0.4151    4.6964 O   0  0  0  0  0  0  0  0  0  0  0  0
   -1.9117    0.4431    3.5875 C   0  0  0  0  0  0  0  0  0  0  0  0
   -2.4455   -0.5132    3.0363 O   0  0  0  0  0  0  0  0  0  0  0  0
   -2.0819    1.6909    3.0520 N   0  0  0  0  0  0  0  0  0  0  0  0
   -3.0790    2.0249    2.0171 C   0  0  1  0  0  0  0  0  0  0  0  0
   -2.7256    1.3937    0.6512 C   0  0  0  0  0  0  0  0  0  0  0  0
   -1.3124    1.7294    0.2264 C   0  0  0  0  0  0  0  0  0  0  0  0
   -1.0212    2.9341   -0.4299 C   0  0  0  0  0  0  0  0  0  0  0  0
    0.2139    3.2788   -0.8385 N   0  0  0  0  0  0  0  0  0  0  0  0
    1.2358    2.4080   -0.6173 C   0  0  0  0  0  0  0  0  0  0  0  0
    0.9990    1.1744    0.0220 C   0  0  0  0  0  0  0  0  0  0  0  0
   -0.2784    0.8233    0.4456 C   0  0  0  0  0  0  0  0  0  0  0  0
    2.6676    2.7410   -1.0560 C   0  0  0  0  0  0  0  0  0  0  0  0
    2.7708    3.9602   -1.6639 F   0  0  0  0  0  0  0  0  0  0  0  0
    3.4934    2.7371    0.0320 F   0  0  0  0  0  0  0  0  0  0  0  0
    3.1149    1.7904   -1.9288 F   0  0  0  0  0  0  0  0  0  0  0  0
   -4.5209    1.7066    2.4720 C   0  0  0  0  0  0  0  0  0  0  0  0
   -5.3462    1.0178    1.6455 O   0  0  0  0  0  0  0  0  0  0  0  0
   -4.8598    2.1215    3.5728 O   0  0  0  0  0  0  0  0  0  0  0  0
    0.2175   -2.6850    5.1120 H   0  0  0  0  0  0  0  0  0  0  0  0
   -0.7689   -2.2490    3.7163 H   0  0  0  0  0  0  0  0  0  0  0  0
    0.7349   -1.3618    4.0442 H   0  0  0  0  0  0  0  0  0  0  0  0
   -0.5156    0.2658    7.2103 H   0  0  0  0  0  0  0  0  0  0  0  0
    0.9274   -0.0075    6.2142 H   0  0  0  0  0  0  0  0  0  0  0  0
    0.2404   -1.3402    7.1659 H   0  0  0  0  0  0  0  0  0  0  0  0
   -2.7746   -0.6927    6.4657 H   0  0  0  0  0  0  0  0  0  0  0  0
   -1.9672   -2.2686    6.6199 H   0  0  0  0  0  0  0  0  0  0  0  0
   -2.8135   -1.8582    5.1271 H   0  0  0  0  0  0  0  0  0  0  0  0
   -1.7459    2.4302    3.6602 H   0  0  0  0  0  0  0  0  0  0  0  0
   -3.0577    3.1093    1.8802 H   0  0  0  0  0  0  0  0  0  0  0  0
   -3.4287    1.7519   -0.1082 H   0  0  0  0  0  0  0  0  0  0  0  0
   -2.8484    0.3065    0.6949 H   0  0  0  0  0  0  0  0  0  0  0  0
   -1.8302    3.6345   -0.6160 H   0  0  0  0  0  0  0  0  0  0  0  0
    1.8265    0.4901    0.1859 H   0  0  0  0  0  0  0  0  0  0  0  0
   -0.4633   -0.1285    0.9410 H   0  0  0  0  0  0  0  0  0  0  0  0
   -6.1601    0.8818    2.1539 H   0  0  0  0  0  0  0  0  0  0  0  0
  1  2  1  0
  1 24  1  0
  1 25  1  0
  1 26  1  0
  2  3  1  0
  2  4  1  0
  2  5  1  0
  3 27  1  0
  3 28  1  0
  3 29  1  0
  4 30  1  0
  4 31  1  0
  4 32  1  0
  5  6  1  0
  6  7  2  0
  6  8  1  0
  8  9  1  0
  8 33  1  0
  9 10  1  0
  9 21  1  0
  9 34  1  6
 10 11  1  0
 10 35  1  0
 10 36  1  0
 11 12  2  0
 11 16  1  0
 12 13  1  0
 12 37  1  0
 13 14  2  0
 14 15  1  0
 14 17  1  0
 15 16  2  0
 15 38  1  0
 16 39  1  0
 17 18  1  0
 17 19  1  0
 17 20  1  0
 21 22  1  0
 21 23  2  0
 22 40  1  0
M  END
>  <group_name>  (1) 
BRI

>  <molecule_index>  (1) 
00647

>  <conformer_index>  (1) 
07

>  <method>  (1) 
openff-1.3.0

>  <basis>  (1) 
smirnoff

>  <program>  (1) 
openmm

>  <initial_energy>  (1) 
21.783944068029903 kilocalorie / mole

>  <final_energy>  (1) 
11.306734556494954 kilocalorie / mole

$$$$
