BRI-00593-07
     RDKit          3D

 36 38  0  0  0  0  0  0  0  0999 V2000
    5.6928    3.6005   -1.1969 C   0  0  0  0  0  0  0  0  0  0  0  0
    4.4070    4.3560   -1.4981 C   0  0  0  0  0  0  0  0  0  0  0  0
    3.2950    3.5894   -1.0099 O   0  0  0  0  0  0  0  0  0  0  0  0
    2.0858    4.1833   -1.2031 C   0  0  0  0  0  0  0  0  0  0  0  0
    1.8968    5.2347   -1.8065 O   0  0  0  0  0  0  0  0  0  0  0  0
    0.9193    3.4508   -0.7189 C   0  0  0  0  0  0  0  0  0  0  0  0
   -0.2098    4.0893   -0.1335 C   0  0  0  0  0  0  0  0  0  0  0  0
   -1.2810    3.3465    0.2599 N   0  0  0  0  0  0  0  0  0  0  0  0
   -1.2748    2.0207    0.1114 C   0  0  0  0  0  0  0  0  0  0  0  0
   -0.1825    1.3514   -0.4291 C   0  0  0  0  0  0  0  0  0  0  0  0
    0.9268    2.0630   -0.8472 C   0  0  0  0  0  0  0  0  0  0  0  0
   -2.4105    1.3310    0.5340 N   0  0  0  0  0  0  0  0  0  0  0  0
   -2.5665   -0.1243    0.4219 C   0  0  0  0  0  0  0  0  0  0  0  0
   -3.9701   -0.3826    0.9562 C   0  0  2  0  0  0  0  0  0  0  0  0
   -5.1175    0.2210    0.1468 C   0  0  0  0  0  0  0  0  0  0  0  0
   -4.5754    0.9429    1.3797 C   0  0  2  0  0  0  0  0  0  0  0  0
   -3.5582    2.0453    1.1133 C   0  0  0  0  0  0  0  0  0  0  0  0
   -0.2490    5.6080    0.1735 C   0  0  0  0  0  0  0  0  0  0  0  0
   -0.5446    6.3339   -0.9453 F   0  0  0  0  0  0  0  0  0  0  0  0
   -1.2152    5.9145    1.0939 F   0  0  0  0  0  0  0  0  0  0  0  0
    0.9215    6.0467    0.7295 F   0  0  0  0  0  0  0  0  0  0  0  0
    6.5541    4.1688   -1.5598 H   0  0  0  0  0  0  0  0  0  0  0  0
    5.7978    3.4527   -0.1179 H   0  0  0  0  0  0  0  0  0  0  0  0
    5.6807    2.6247   -1.6914 H   0  0  0  0  0  0  0  0  0  0  0  0
    4.3161    4.5121   -2.5788 H   0  0  0  0  0  0  0  0  0  0  0  0
    4.4343    5.3375   -1.0116 H   0  0  0  0  0  0  0  0  0  0  0  0
   -0.1861    0.2749   -0.5333 H   0  0  0  0  0  0  0  0  0  0  0  0
    1.7809    1.5437   -1.2796 H   0  0  0  0  0  0  0  0  0  0  0  0
   -2.4870   -0.4582   -0.6182 H   0  0  0  0  0  0  0  0  0  0  0  0
   -1.8260   -0.6449    1.0384 H   0  0  0  0  0  0  0  0  0  0  0  0
   -4.1231   -1.2713    1.5762 H   0  0  0  0  0  0  0  0  0  0  0  0
   -6.1022   -0.2506    0.2226 H   0  0  0  0  0  0  0  0  0  0  0  0
   -4.8798    0.6468   -0.8342 H   0  0  0  0  0  0  0  0  0  0  0  0
   -5.1616    1.0052    2.3016 H   0  0  0  0  0  0  0  0  0  0  0  0
   -3.2762    2.5421    2.0480 H   0  0  0  0  0  0  0  0  0  0  0  0
   -3.9635    2.7863    0.4156 H   0  0  0  0  0  0  0  0  0  0  0  0
  1  2  1  0
  1 22  1  0
  1 23  1  0
  1 24  1  0
  2  3  1  0
  2 25  1  0
  2 26  1  0
  3  4  1  0
  4  5  2  0
  4  6  1  0
  6  7  2  0
  6 11  1  0
  7  8  1  0
  7 18  1  0
  8  9  2  0
  9 10  1  0
  9 12  1  0
 10 11  2  0
 10 27  1  0
 11 28  1  0
 12 13  1  0
 12 17  1  0
 13 14  1  0
 13 29  1  0
 13 30  1  0
 14 15  1  0
 14 16  1  0
 14 31  1  1
 15 16  1  0
 15 32  1  0
 15 33  1  0
 16 17  1  0
 16 34  1  1
 17 35  1  0
 17 36  1  0
 18 19  1  0
 18 20  1  0
 18 21  1  0
M  END
>  <group_name>  (1) 
BRI

>  <molecule_index>  (1) 
00593

>  <conformer_index>  (1) 
07

>  <method>  (1) 
openff-1.3.0

>  <basis>  (1) 
smirnoff

>  <program>  (1) 
openmm

>  <initial_energy>  (1) 
25.59236411032239 kilocalorie / mole

>  <final_energy>  (1) 
15.819975177491116 kilocalorie / mole

$$$$
