BRI-00739-00
     RDKit          3D

 34 35  0  0  0  0  0  0  0  0999 V2000
    8.2160    1.6440    0.2536 C   0  0  0  0  0  0  0  0  0  0  0  0
    7.1494    0.7850    0.7487 N   0  0  0  0  0  0  0  0  0  0  0  0
    7.2481   -0.5828    0.7838 C   0  0  0  0  0  0  0  0  0  0  0  0
    8.2584   -1.1204    0.3504 O   0  0  0  0  0  0  0  0  0  0  0  0
    6.1498   -1.4481    1.3476 C   0  0  2  0  0  0  0  0  0  0  0  0
    6.1154   -2.7170    0.5663 C   0  0  0  0  0  0  0  0  0  0  0  0
    5.0892   -3.1783   -0.1013 N   0  0  0  0  0  0  0  0  0  0  0  0
    3.9030   -2.4579   -0.1619 C   0  0  0  0  0  0  0  0  0  0  0  0
    2.7792   -3.0948   -0.9418 C   0  0  0  0  0  0  0  0  0  0  0  0
    3.7292   -1.2553    0.5059 C   0  0  0  0  0  0  0  0  0  0  0  0
    4.8242   -0.7469    1.3141 C   0  0  0  0  0  0  0  0  0  0  0  0
    4.6903    0.2695    1.9930 O   0  0  0  0  0  0  0  0  0  0  0  0
    2.4699   -0.5007    0.4250 C   0  0  0  0  0  0  0  0  0  0  0  0
    1.9651   -0.0451   -0.7907 C   0  0  0  0  0  0  0  0  0  0  0  0
    0.7566    0.6760   -0.8538 C   0  0  0  0  0  0  0  0  0  0  0  0
    0.0537    0.9529    0.2775 N   0  0  0  0  0  0  0  0  0  0  0  0
    0.5494    0.5322    1.4554 C   0  0  0  0  0  0  0  0  0  0  0  0
    1.7378   -0.1892    1.5643 C   0  0  0  0  0  0  0  0  0  0  0  0
    0.2566    1.1330   -2.2289 C   0  0  0  0  0  0  0  0  0  0  0  0
    1.1761    1.9676   -2.7972 F   0  0  0  0  0  0  0  0  0  0  0  0
   -0.9419    1.7861   -2.1753 F   0  0  0  0  0  0  0  0  0  0  0  0
    0.1138    0.0464   -3.0447 F   0  0  0  0  0  0  0  0  0  0  0  0
    9.1533    1.4292    0.7777 H   0  0  0  0  0  0  0  0  0  0  0  0
    7.9608    2.6955    0.4176 H   0  0  0  0  0  0  0  0  0  0  0  0
    8.3642    1.4844   -0.8194 H   0  0  0  0  0  0  0  0  0  0  0  0
    6.3304    1.1928    1.2038 H   0  0  0  0  0  0  0  0  0  0  0  0
    6.3974   -1.6777    2.3828 H   0  0  0  0  0  0  0  0  0  0  0  0
    7.0089   -3.3369    0.5713 H   0  0  0  0  0  0  0  0  0  0  0  0
    2.9835   -4.1583   -1.0980 H   0  0  0  0  0  0  0  0  0  0  0  0
    2.6820   -2.6204   -1.9215 H   0  0  0  0  0  0  0  0  0  0  0  0
    1.8333   -3.0113   -0.3991 H   0  0  0  0  0  0  0  0  0  0  0  0
    2.5133   -0.2346   -1.7080 H   0  0  0  0  0  0  0  0  0  0  0  0
   -0.0036    0.7630    2.3612 H   0  0  0  0  0  0  0  0  0  0  0  0
    2.0849   -0.4949    2.5456 H   0  0  0  0  0  0  0  0  0  0  0  0
  1  2  1  0
  1 23  1  0
  1 24  1  0
  1 25  1  0
  2  3  1  0
  2 26  1  0
  3  4  2  0
  3  5  1  0
  5  6  1  0
  5 11  1  0
  5 27  1  1
  6  7  2  0
  6 28  1  0
  7  8  1  0
  8  9  1  0
  8 10  2  0
  9 29  1  0
  9 30  1  0
  9 31  1  0
 10 11  1  0
 10 13  1  0
 11 12  2  0
 13 14  2  0
 13 18  1  0
 14 15  1  0
 14 32  1  0
 15 16  2  0
 15 19  1  0
 16 17  1  0
 17 18  2  0
 17 33  1  0
 18 34  1  0
 19 20  1  0
 19 21  1  0
 19 22  1  0
M  END
>  <group_name>  (1) 
BRI

>  <molecule_index>  (1) 
00739

>  <conformer_index>  (1) 
00

>  <method>  (1) 
openff-1.3.0

>  <basis>  (1) 
smirnoff

>  <program>  (1) 
openmm

>  <initial_energy>  (1) 
-95.12913608979802 kilocalorie / mole

>  <final_energy>  (1) 
-106.36047477527146 kilocalorie / mole

$$$$
