BRI-00638-00
     RDKit          3D

 45 45  0  0  0  0  0  0  0  0999 V2000
   -3.3571    7.4598    1.8001 C   0  0  0  0  0  0  0  0  0  0  0  0
   -2.9019    6.2822    0.9494 C   0  0  0  0  0  0  0  0  0  0  0  0
   -2.0424    5.4343    1.7298 O   0  0  0  0  0  0  0  0  0  0  0  0
   -0.6343    5.6053    1.4635 C   0  0  0  0  0  0  0  0  0  0  0  0
   -0.2129    4.7597    0.2614 C   0  0  0  0  0  0  0  0  0  0  0  0
   -0.5823    3.3637    0.5049 N   0  0  0  0  0  0  0  0  0  0  0  0
   -0.6048    2.4496   -0.9323 S   0  0  0  0  0  0  0  0  0  0  0  0
   -1.8850    2.8234   -1.5448 O   0  0  0  0  0  0  0  0  0  0  0  0
    0.5824    2.8343   -1.7104 O   0  0  0  0  0  0  0  0  0  0  0  0
   -0.5387    0.7429   -0.2997 C   0  0  0  0  0  0  0  0  0  0  0  0
    0.6323    0.6163    0.7124 C   0  0  0  0  0  0  0  0  0  0  0  0
   -1.8655    0.3400    0.3760 C   0  0  0  0  0  0  0  0  0  0  0  0
   -0.3377   -0.0202   -1.6104 C   0  0  0  0  0  0  0  0  0  0  0  0
   -1.0217    0.2167   -2.5951 O   0  0  0  0  0  0  0  0  0  0  0  0
    0.6897   -0.8782   -1.8772 N   0  0  0  0  0  0  0  0  0  0  0  0
    0.9205   -2.0434   -1.1809 C   0  0  0  0  0  0  0  0  0  0  0  0
    2.0225   -2.8121   -1.5546 C   0  0  0  0  0  0  0  0  0  0  0  0
    2.2820   -4.0187   -0.9196 C   0  0  0  0  0  0  0  0  0  0  0  0
    1.4006   -4.4157    0.0771 C   0  0  0  0  0  0  0  0  0  0  0  0
    0.2903   -3.6169    0.4148 C   0  0  0  0  0  0  0  0  0  0  0  0
    0.0654   -2.4399   -0.2292 N   0  0  0  0  0  0  0  0  0  0  0  0
   -0.6514   -4.1010    1.5257 C   0  0  0  0  0  0  0  0  0  0  0  0
   -1.1943   -5.3052    1.1794 F   0  0  0  0  0  0  0  0  0  0  0  0
    0.0531   -4.2701    2.6836 F   0  0  0  0  0  0  0  0  0  0  0  0
   -1.6721   -3.2280    1.7773 F   0  0  0  0  0  0  0  0  0  0  0  0
   -3.8855    7.0992    2.6878 H   0  0  0  0  0  0  0  0  0  0  0  0
   -4.0334    8.0975    1.2235 H   0  0  0  0  0  0  0  0  0  0  0  0
   -2.4955    8.0554    2.1156 H   0  0  0  0  0  0  0  0  0  0  0  0
   -2.3946    6.6518    0.0520 H   0  0  0  0  0  0  0  0  0  0  0  0
   -3.7744    5.7077    0.6225 H   0  0  0  0  0  0  0  0  0  0  0  0
   -0.3958    6.6572    1.2765 H   0  0  0  0  0  0  0  0  0  0  0  0
   -0.0647    5.2877    2.3423 H   0  0  0  0  0  0  0  0  0  0  0  0
   -0.7188    5.1406   -0.6333 H   0  0  0  0  0  0  0  0  0  0  0  0
    0.8666    4.8462    0.0958 H   0  0  0  0  0  0  0  0  0  0  0  0
   -1.5632    3.3412    0.7674 H   0  0  0  0  0  0  0  0  0  0  0  0
    0.4772    1.2672    1.5781 H   0  0  0  0  0  0  0  0  0  0  0  0
    0.7248   -0.3973    1.1060 H   0  0  0  0  0  0  0  0  0  0  0  0
    1.5798    0.8976    0.2405 H   0  0  0  0  0  0  0  0  0  0  0  0
   -2.7056    0.4731   -0.3146 H   0  0  0  0  0  0  0  0  0  0  0  0
   -1.8417   -0.7099    0.6816 H   0  0  0  0  0  0  0  0  0  0  0  0
   -2.0499    0.9512    1.2650 H   0  0  0  0  0  0  0  0  0  0  0  0
    0.8450   -0.9601   -2.8730 H   0  0  0  0  0  0  0  0  0  0  0  0
    2.6824   -2.4599   -2.3402 H   0  0  0  0  0  0  0  0  0  0  0  0
    3.1404   -4.6294   -1.1920 H   0  0  0  0  0  0  0  0  0  0  0  0
    1.5643   -5.3526    0.6022 H   0  0  0  0  0  0  0  0  0  0  0  0
  1  2  1  0
  1 26  1  0
  1 27  1  0
  1 28  1  0
  2  3  1  0
  2 29  1  0
  2 30  1  0
  3  4  1  0
  4  5  1  0
  4 31  1  0
  4 32  1  0
  5  6  1  0
  5 33  1  0
  5 34  1  0
  6  7  1  0
  6 35  1  0
  7  8  2  0
  7  9  2  0
  7 10  1  0
 10 11  1  0
 10 12  1  0
 10 13  1  0
 11 36  1  0
 11 37  1  0
 11 38  1  0
 12 39  1  0
 12 40  1  0
 12 41  1  0
 13 14  2  0
 13 15  1  0
 15 16  1  0
 15 42  1  0
 16 17  2  0
 16 21  1  0
 17 18  1  0
 17 43  1  0
 18 19  2  0
 18 44  1  0
 19 20  1  0
 19 45  1  0
 20 21  2  0
 20 22  1  0
 22 23  1  0
 22 24  1  0
 22 25  1  0
M  END
>  <group_name>  (1) 
BRI

>  <molecule_index>  (1) 
00638

>  <conformer_index>  (1) 
00

>  <method>  (1) 
openff-1.3.0

>  <basis>  (1) 
smirnoff

>  <program>  (1) 
openmm

>  <initial_energy>  (1) 
-86.67529269032649 kilocalorie / mole

>  <final_energy>  (1) 
-108.69292759454288 kilocalorie / mole

$$$$
