BRI-01545-05
     RDKit          3D

 40 41  0  0  0  0  0  0  0  0999 V2000
    0.5043    8.5128   -2.5964 C   0  0  0  0  0  0  0  0  0  0  0  0
   -0.1663    7.4255   -1.7416 C   0  0  0  0  0  0  0  0  0  0  0  0
   -1.1905    8.1015   -0.8246 C   0  0  0  0  0  0  0  0  0  0  0  0
   -0.9100    6.4071   -2.6214 C   0  0  0  0  0  0  0  0  0  0  0  0
    0.7578    6.7851   -0.8377 O   0  0  0  0  0  0  0  0  0  0  0  0
    1.7872    6.0345   -1.3320 C   0  0  0  0  0  0  0  0  0  0  0  0
    2.1236    5.9379   -2.5122 O   0  0  0  0  0  0  0  0  0  0  0  0
    2.6003    5.2482   -0.2889 C   0  0  2  0  0  0  0  0  0  0  0  0
    2.3305    5.6042    0.7091 H   0  0  0  0  0  0  0  0  0  0  0  0
    4.1240    5.3937   -0.4716 C   0  0  0  0  0  0  0  0  0  0  0  0
    4.5200    4.2620   -1.4222 C   0  0  0  0  0  0  0  0  0  0  0  0
    3.4844    3.2248   -1.0584 C   0  0  0  0  0  0  0  0  0  0  0  0
    3.7189    2.0284   -1.1749 O   0  0  0  0  0  0  0  0  0  0  0  0
    2.4013    3.7984   -0.4212 N   0  0  0  0  0  0  0  0  0  0  0  0
    1.1769    3.1506   -0.0995 C   0  0  0  0  0  0  0  0  0  0  0  0
    0.1940    3.8312    0.6336 C   0  0  0  0  0  0  0  0  0  0  0  0
   -1.0053    3.1859    0.9229 C   0  0  0  0  0  0  0  0  0  0  0  0
   -1.2452    1.8696    0.4916 C   0  0  0  0  0  0  0  0  0  0  0  0
   -0.3040    1.2010   -0.2215 N   0  0  0  0  0  0  0  0  0  0  0  0
    0.8614    1.8241   -0.5020 C   0  0  0  0  0  0  0  0  0  0  0  0
   -2.5889    1.2187    0.8407 C   0  0  0  0  0  0  0  0  0  0  0  0
   -2.7416    1.1807    2.1974 F   0  0  0  0  0  0  0  0  0  0  0  0
   -2.7093   -0.0545    0.3607 F   0  0  0  0  0  0  0  0  0  0  0  0
   -3.6077    1.9675    0.3235 F   0  0  0  0  0  0  0  0  0  0  0  0
   -0.2507    9.1218   -3.1028 H   0  0  0  0  0  0  0  0  0  0  0  0
    1.1146    9.1668   -1.9665 H   0  0  0  0  0  0  0  0  0  0  0  0
    1.1436    8.0758   -3.3682 H   0  0  0  0  0  0  0  0  0  0  0  0
   -1.9549    8.6222   -1.4097 H   0  0  0  0  0  0  0  0  0  0  0  0
   -0.6965    8.8303   -0.1745 H   0  0  0  0  0  0  0  0  0  0  0  0
   -1.6862    7.3568   -0.1940 H   0  0  0  0  0  0  0  0  0  0  0  0
   -1.7456    6.8863   -3.1405 H   0  0  0  0  0  0  0  0  0  0  0  0
   -0.2502    5.9819   -3.3826 H   0  0  0  0  0  0  0  0  0  0  0  0
   -1.3031    5.5909   -2.0074 H   0  0  0  0  0  0  0  0  0  0  0  0
    4.6087    5.2229    0.4962 H   0  0  0  0  0  0  0  0  0  0  0  0
    4.4190    6.3831   -0.8378 H   0  0  0  0  0  0  0  0  0  0  0  0
    4.4030    4.5497   -2.4706 H   0  0  0  0  0  0  0  0  0  0  0  0
    5.5342    3.8993   -1.2358 H   0  0  0  0  0  0  0  0  0  0  0  0
    0.3253    4.8474    0.9905 H   0  0  0  0  0  0  0  0  0  0  0  0
   -1.7723    3.7047    1.4913 H   0  0  0  0  0  0  0  0  0  0  0  0
    1.5563    1.2397   -1.0922 H   0  0  0  0  0  0  0  0  0  0  0  0
  1  2  1  0
  1 25  1  0
  1 26  1  0
  1 27  1  0
  2  3  1  0
  2  4  1  0
  2  5  1  0
  3 28  1  0
  3 29  1  0
  3 30  1  0
  4 31  1  0
  4 32  1  0
  4 33  1  0
  5  6  1  0
  6  7  2  0
  6  8  1  0
  8  9  1  1
  8 10  1  0
  8 14  1  0
 10 11  1  0
 10 34  1  0
 10 35  1  0
 11 12  1  0
 11 36  1  0
 11 37  1  0
 12 13  2  0
 12 14  1  0
 14 15  1  0
 15 16  2  0
 15 20  1  0
 16 17  1  0
 16 38  1  0
 17 18  2  0
 17 39  1  0
 18 19  1  0
 18 21  1  0
 19 20  2  0
 20 40  1  0
 21 22  1  0
 21 23  1  0
 21 24  1  0
M  END
>  <group_name>  (1) 
BRI

>  <molecule_index>  (1) 
01545

>  <conformer_index>  (1) 
05

>  <method>  (1) 
openff-1.3.0

>  <basis>  (1) 
smirnoff

>  <program>  (1) 
openmm

>  <initial_energy>  (1) 
106.68378581012243 kilocalorie / mole

>  <final_energy>  (1) 
95.71422303823381 kilocalorie / mole

$$$$
