BRI-01231-00
     RDKit          3D

 32 33  0  0  0  0  0  0  0  0999 V2000
   -4.1833    0.4725    0.0495 C   0  0  0  0  0  0  0  0  0  0  0  0
   -3.2785   -0.1917   -0.8503 O   0  0  0  0  0  0  0  0  0  0  0  0
   -2.5854   -1.2500   -0.3019 C   0  0  0  0  0  0  0  0  0  0  0  0
   -1.7793   -1.1362    0.8577 C   0  0  0  0  0  0  0  0  0  0  0  0
   -1.6030    0.0515    1.5367 O   0  0  0  0  0  0  0  0  0  0  0  0
   -0.9781    1.0838    0.8574 C   0  0  0  0  0  0  0  0  0  0  0  0
   -1.1291    2.3942    1.3392 C   0  0  0  0  0  0  0  0  0  0  0  0
   -0.5759    3.4825    0.7640 N   0  0  0  0  0  0  0  0  0  0  0  0
    0.1884    3.3075   -0.3476 C   0  0  0  0  0  0  0  0  0  0  0  0
    0.3954    2.0170   -0.8753 C   0  0  0  0  0  0  0  0  0  0  0  0
   -0.1808    0.8967   -0.2787 C   0  0  0  0  0  0  0  0  0  0  0  0
    0.8452    4.4999   -1.0530 C   0  0  0  0  0  0  0  0  0  0  0  0
    0.5791    5.6935   -0.4444 F   0  0  0  0  0  0  0  0  0  0  0  0
    2.1994    4.3262   -1.0810 F   0  0  0  0  0  0  0  0  0  0  0  0
    0.4007    4.5690   -2.3423 F   0  0  0  0  0  0  0  0  0  0  0  0
   -1.1291   -2.2717    1.3472 C   0  0  0  0  0  0  0  0  0  0  0  0
   -1.2394   -3.5014    0.6922 C   0  0  0  0  0  0  0  0  0  0  0  0
   -2.0128   -3.6320   -0.4759 C   0  0  0  0  0  0  0  0  0  0  0  0
   -2.6735   -2.4819   -0.9604 C   0  0  0  0  0  0  0  0  0  0  0  0
   -2.1087   -4.9414   -1.1602 C   0  0  0  0  0  0  0  0  0  0  0  0
   -3.0800   -5.1052   -2.1001 O   0  0  0  0  0  0  0  0  0  0  0  0
   -1.3122   -5.8107   -0.8293 O   0  0  0  0  0  0  0  0  0  0  0  0
   -5.1508    0.6141   -0.4410 H   0  0  0  0  0  0  0  0  0  0  0  0
   -4.3454   -0.1067    0.9646 H   0  0  0  0  0  0  0  0  0  0  0  0
   -3.7879    1.4559    0.3199 H   0  0  0  0  0  0  0  0  0  0  0  0
   -1.7360    2.5441    2.2272 H   0  0  0  0  0  0  0  0  0  0  0  0
    1.0138    1.8977   -1.7609 H   0  0  0  0  0  0  0  0  0  0  0  0
   -0.0032   -0.0894   -0.6988 H   0  0  0  0  0  0  0  0  0  0  0  0
   -0.5215   -2.1879    2.2439 H   0  0  0  0  0  0  0  0  0  0  0  0
   -0.7138   -4.3658    1.0949 H   0  0  0  0  0  0  0  0  0  0  0  0
   -3.2663   -2.4989   -1.8688 H   0  0  0  0  0  0  0  0  0  0  0  0
   -3.6294   -4.3147   -2.1123 H   0  0  0  0  0  0  0  0  0  0  0  0
  1  2  1  0
  1 23  1  0
  1 24  1  0
  1 25  1  0
  2  3  1  0
  3  4  2  0
  3 19  1  0
  4  5  1  0
  4 16  1  0
  5  6  1  0
  6  7  2  0
  6 11  1  0
  7  8  1  0
  7 26  1  0
  8  9  2  0
  9 10  1  0
  9 12  1  0
 10 11  2  0
 10 27  1  0
 11 28  1  0
 12 13  1  0
 12 14  1  0
 12 15  1  0
 16 17  2  0
 16 29  1  0
 17 18  1  0
 17 30  1  0
 18 19  2  0
 18 20  1  0
 19 31  1  0
 20 21  1  0
 20 22  2  0
 21 32  1  0
M  END
>  <group_name>  (1) 
BRI

>  <molecule_index>  (1) 
01231

>  <conformer_index>  (1) 
00

>  <method>  (1) 
openff-1.3.0

>  <basis>  (1) 
smirnoff

>  <program>  (1) 
openmm

>  <initial_energy>  (1) 
109.6257451497046 kilocalorie / mole

>  <final_energy>  (1) 
99.44825377575515 kilocalorie / mole

$$$$
