BRI-00649-02
     RDKit          3D

 53 55  0  0  0  0  0  0  0  0999 V2000
    7.0379   -1.9132   -4.9415 C   0  0  0  0  0  0  0  0  0  0  0  0
    6.2046   -2.4728   -3.7900 C   0  0  0  0  0  0  0  0  0  0  0  0
    6.0524   -1.5073   -2.6923 N   0  0  0  0  0  0  0  0  0  0  0  0
    4.8013   -0.7358   -2.5525 C   0  0  1  0  0  0  0  0  0  0  0  0
    4.9945    0.1332   -1.9142 H   0  0  0  0  0  0  0  0  0  0  0  0
    4.2776   -0.1673   -3.8800 C   0  0  0  0  0  0  0  0  0  0  0  0
    3.7517   -1.6132   -1.8479 C   0  0  0  0  0  0  0  0  0  0  0  0
    2.5526   -0.8487   -1.4719 N   0  0  0  0  0  0  0  0  0  0  0  0
    2.3639   -0.2777   -0.2404 C   0  0  0  0  0  0  0  0  0  0  0  0
    3.3984   -0.0044    0.6531 C   0  0  0  0  0  0  0  0  0  0  0  0
    3.1063    0.5729    1.8833 C   0  0  0  0  0  0  0  0  0  0  0  0
    1.7756    0.8572    2.1750 C   0  0  0  0  0  0  0  0  0  0  0  0
    1.4754    1.4207    3.3746 F   0  0  0  0  0  0  0  0  0  0  0  0
    0.7714    0.5548    1.2208 C   0  0  0  0  0  0  0  0  0  0  0  0
    1.0873   -0.0137    0.0190 N   0  0  0  0  0  0  0  0  0  0  0  0
   -0.6903    0.8738    1.5621 C   0  0  0  0  0  0  0  0  0  0  0  0
   -1.0780    0.1889    2.6790 F   0  0  0  0  0  0  0  0  0  0  0  0
   -0.8470    2.2118    1.7896 F   0  0  0  0  0  0  0  0  0  0  0  0
   -1.5501    0.5281    0.5565 F   0  0  0  0  0  0  0  0  0  0  0  0
    6.9107   -1.5756   -1.5939 C   0  0  0  0  0  0  0  0  0  0  0  0
    6.6599   -0.9169   -0.5851 O   0  0  0  0  0  0  0  0  0  0  0  0
    8.1196   -2.4150   -1.5780 C   0  0  0  0  0  0  0  0  0  0  0  0
    8.1392   -3.6670   -0.9096 C   0  0  0  0  0  0  0  0  0  0  0  0
    9.3259   -4.4243   -0.8962 C   0  0  0  0  0  0  0  0  0  0  0  0
    9.3802   -5.6444   -0.3016 F   0  0  0  0  0  0  0  0  0  0  0  0
   10.4744   -3.9367   -1.5268 C   0  0  0  0  0  0  0  0  0  0  0  0
   10.4643   -2.6977   -2.1686 C   0  0  0  0  0  0  0  0  0  0  0  0
    9.2924   -1.9410   -2.1892 C   0  0  0  0  0  0  0  0  0  0  0  0
    6.9472   -4.1795   -0.2267 C   0  0  0  0  0  0  0  0  0  0  0  0
    5.8191   -4.3266   -0.9487 N   0  0  0  0  0  0  0  0  0  0  0  0
    4.7427   -4.7941   -0.3177 C   0  0  0  0  0  0  0  0  0  0  0  0
    4.7777   -5.1077    1.0209 C   0  0  0  0  0  0  0  0  0  0  0  0
    5.9629   -4.9347    1.6983 C   0  0  0  0  0  0  0  0  0  0  0  0
    7.0479   -4.4771    1.0796 N   0  0  0  0  0  0  0  0  0  0  0  0
    7.1281   -2.6661   -5.7300 H   0  0  0  0  0  0  0  0  0  0  0  0
    6.5660   -1.0242   -5.3674 H   0  0  0  0  0  0  0  0  0  0  0  0
    8.0417   -1.6471   -4.6041 H   0  0  0  0  0  0  0  0  0  0  0  0
    5.2221   -2.7713   -4.1675 H   0  0  0  0  0  0  0  0  0  0  0  0
    6.6662   -3.3975   -3.4296 H   0  0  0  0  0  0  0  0  0  0  0  0
    5.0439    0.4571   -4.3481 H   0  0  0  0  0  0  0  0  0  0  0  0
    3.4009    0.4624   -3.7006 H   0  0  0  0  0  0  0  0  0  0  0  0
    3.9873   -0.9625   -4.5719 H   0  0  0  0  0  0  0  0  0  0  0  0
    4.1948   -2.0610   -0.9525 H   0  0  0  0  0  0  0  0  0  0  0  0
    3.4717   -2.4442   -2.5033 H   0  0  0  0  0  0  0  0  0  0  0  0
    1.6673   -1.0336   -1.9363 H   0  0  0  0  0  0  0  0  0  0  0  0
    4.4258   -0.2303    0.3923 H   0  0  0  0  0  0  0  0  0  0  0  0
    3.8911    0.8008    2.6003 H   0  0  0  0  0  0  0  0  0  0  0  0
   11.3803   -4.5348   -1.5063 H   0  0  0  0  0  0  0  0  0  0  0  0
   11.3663   -2.3212   -2.6442 H   0  0  0  0  0  0  0  0  0  0  0  0
    9.2910   -0.9666   -2.6712 H   0  0  0  0  0  0  0  0  0  0  0  0
    3.8179   -4.9242   -0.8722 H   0  0  0  0  0  0  0  0  0  0  0  0
    3.8977   -5.4817    1.5292 H   0  0  0  0  0  0  0  0  0  0  0  0
    6.0166   -5.1771    2.7557 H   0  0  0  0  0  0  0  0  0  0  0  0
  1  2  1  0
  1 35  1  0
  1 36  1  0
  1 37  1  0
  2  3  1  0
  2 38  1  0
  2 39  1  0
  3  4  1  0
  3 20  1  0
  4  5  1  1
  4  6  1  0
  4  7  1  0
  6 40  1  0
  6 41  1  0
  6 42  1  0
  7  8  1  0
  7 43  1  0
  7 44  1  0
  8  9  1  0
  8 45  1  0
  9 10  2  0
  9 15  1  0
 10 11  1  0
 10 46  1  0
 11 12  2  0
 11 47  1  0
 12 13  1  0
 12 14  1  0
 14 15  2  0
 14 16  1  0
 16 17  1  0
 16 18  1  0
 16 19  1  0
 20 21  2  0
 20 22  1  0
 22 23  1  0
 22 28  2  0
 23 24  2  0
 23 29  1  0
 24 25  1  0
 24 26  1  0
 26 27  2  0
 26 48  1  0
 27 28  1  0
 27 49  1  0
 28 50  1  0
 29 30  2  0
 29 34  1  0
 30 31  1  0
 31 32  2  0
 31 51  1  0
 32 33  1  0
 32 52  1  0
 33 34  2  0
 33 53  1  0
M  END
>  <group_name>  (1) 
BRI

>  <molecule_index>  (1) 
00649

>  <conformer_index>  (1) 
02

>  <method>  (1) 
openff-1.3.0

>  <basis>  (1) 
smirnoff

>  <program>  (1) 
openmm

>  <initial_energy>  (1) 
-15.698498852932769 kilocalorie / mole

>  <final_energy>  (1) 
-25.189999084962242 kilocalorie / mole

$$$$
