BRI-00649-05
     RDKit          3D

 53 55  0  0  0  0  0  0  0  0999 V2000
    7.8319   -0.3212   -3.1710 C   0  0  0  0  0  0  0  0  0  0  0  0
    7.7479   -1.2143   -1.9367 C   0  0  0  0  0  0  0  0  0  0  0  0
    6.3490   -1.5147   -1.5926 N   0  0  0  0  0  0  0  0  0  0  0  0
    5.5332   -0.5946   -0.7698 C   0  0  1  0  0  0  0  0  0  0  0  0
    4.9387   -1.1995   -0.0763 H   0  0  0  0  0  0  0  0  0  0  0  0
    6.3499    0.3670    0.1092 C   0  0  0  0  0  0  0  0  0  0  0  0
    4.5566    0.1783   -1.6781 C   0  0  0  0  0  0  0  0  0  0  0  0
    3.5779    0.9542   -0.8994 N   0  0  0  0  0  0  0  0  0  0  0  0
    2.3580    0.4859   -0.4848 C   0  0  0  0  0  0  0  0  0  0  0  0
    1.9957   -0.8598   -0.5021 C   0  0  0  0  0  0  0  0  0  0  0  0
    0.7333   -1.2355   -0.0577 C   0  0  0  0  0  0  0  0  0  0  0  0
   -0.1269   -0.2390    0.3932 C   0  0  0  0  0  0  0  0  0  0  0  0
   -1.3639   -0.5921    0.8313 F   0  0  0  0  0  0  0  0  0  0  0  0
    0.3045    1.1116    0.3860 C   0  0  0  0  0  0  0  0  0  0  0  0
    1.5512    1.4523   -0.0575 N   0  0  0  0  0  0  0  0  0  0  0  0
   -0.6582    2.1960    0.8881 C   0  0  0  0  0  0  0  0  0  0  0  0
   -1.7970    2.2092    0.1334 F   0  0  0  0  0  0  0  0  0  0  0  0
   -0.1148    3.4492    0.8246 F   0  0  0  0  0  0  0  0  0  0  0  0
   -0.9972    1.9663    2.1916 F   0  0  0  0  0  0  0  0  0  0  0  0
    5.7925   -2.7356   -1.9749 C   0  0  0  0  0  0  0  0  0  0  0  0
    4.6204   -2.9813   -1.6922 O   0  0  0  0  0  0  0  0  0  0  0  0
    6.5174   -3.7185   -2.7977 C   0  0  0  0  0  0  0  0  0  0  0  0
    7.2038   -4.8135   -2.2110 C   0  0  0  0  0  0  0  0  0  0  0  0
    7.8626   -5.7406   -3.0404 C   0  0  0  0  0  0  0  0  0  0  0  0
    8.5610   -6.7838   -2.5216 F   0  0  0  0  0  0  0  0  0  0  0  0
    7.8301   -5.5830   -4.4293 C   0  0  0  0  0  0  0  0  0  0  0  0
    7.1451   -4.5151   -5.0105 C   0  0  0  0  0  0  0  0  0  0  0  0
    6.4907   -3.5900   -4.1964 C   0  0  0  0  0  0  0  0  0  0  0  0
    7.2294   -4.9957   -0.7571 C   0  0  0  0  0  0  0  0  0  0  0  0
    6.7774   -6.1574   -0.2559 N   0  0  0  0  0  0  0  0  0  0  0  0
    6.7814   -6.3048    1.0664 C   0  0  0  0  0  0  0  0  0  0  0  0
    7.2388   -5.3040    1.8932 C   0  0  0  0  0  0  0  0  0  0  0  0
    7.6977   -4.1427    1.3154 C   0  0  0  0  0  0  0  0  0  0  0  0
    7.7014   -3.9832   -0.0065 N   0  0  0  0  0  0  0  0  0  0  0  0
    8.8804   -0.1411   -3.4259 H   0  0  0  0  0  0  0  0  0  0  0  0
    7.3431   -0.7976   -4.0250 H   0  0  0  0  0  0  0  0  0  0  0  0
    7.3531    0.6432   -2.9812 H   0  0  0  0  0  0  0  0  0  0  0  0
    8.3118   -2.1334   -2.1224 H   0  0  0  0  0  0  0  0  0  0  0  0
    8.2690   -0.7391   -1.1016 H   0  0  0  0  0  0  0  0  0  0  0  0
    5.6866    0.9468    0.7581 H   0  0  0  0  0  0  0  0  0  0  0  0
    6.9262    1.0673   -0.5024 H   0  0  0  0  0  0  0  0  0  0  0  0
    7.0305   -0.1979    0.7534 H   0  0  0  0  0  0  0  0  0  0  0  0
    4.0318   -0.5197   -2.3391 H   0  0  0  0  0  0  0  0  0  0  0  0
    5.1216    0.8518   -2.3296 H   0  0  0  0  0  0  0  0  0  0  0  0
    3.6176    1.9700   -0.8923 H   0  0  0  0  0  0  0  0  0  0  0  0
    2.6903   -1.6130   -0.8540 H   0  0  0  0  0  0  0  0  0  0  0  0
    0.4214   -2.2769   -0.0584 H   0  0  0  0  0  0  0  0  0  0  0  0
    8.3443   -6.3077   -5.0532 H   0  0  0  0  0  0  0  0  0  0  0  0
    7.1167   -4.4081   -6.0918 H   0  0  0  0  0  0  0  0  0  0  0  0
    5.9427   -2.7685   -4.6504 H   0  0  0  0  0  0  0  0  0  0  0  0
    6.4165   -7.2321    1.4985 H   0  0  0  0  0  0  0  0  0  0  0  0
    7.2375   -5.4285    2.9687 H   0  0  0  0  0  0  0  0  0  0  0  0
    8.0653   -3.3396    1.9476 H   0  0  0  0  0  0  0  0  0  0  0  0
  1  2  1  0
  1 35  1  0
  1 36  1  0
  1 37  1  0
  2  3  1  0
  2 38  1  0
  2 39  1  0
  3  4  1  0
  3 20  1  0
  4  5  1  1
  4  6  1  0
  4  7  1  0
  6 40  1  0
  6 41  1  0
  6 42  1  0
  7  8  1  0
  7 43  1  0
  7 44  1  0
  8  9  1  0
  8 45  1  0
  9 10  2  0
  9 15  1  0
 10 11  1  0
 10 46  1  0
 11 12  2  0
 11 47  1  0
 12 13  1  0
 12 14  1  0
 14 15  2  0
 14 16  1  0
 16 17  1  0
 16 18  1  0
 16 19  1  0
 20 21  2  0
 20 22  1  0
 22 23  1  0
 22 28  2  0
 23 24  2  0
 23 29  1  0
 24 25  1  0
 24 26  1  0
 26 27  2  0
 26 48  1  0
 27 28  1  0
 27 49  1  0
 28 50  1  0
 29 30  2  0
 29 34  1  0
 30 31  1  0
 31 32  2  0
 31 51  1  0
 32 33  1  0
 32 52  1  0
 33 34  2  0
 33 53  1  0
M  END
>  <group_name>  (1) 
BRI

>  <molecule_index>  (1) 
00649

>  <conformer_index>  (1) 
05

>  <method>  (1) 
openff-1.3.0

>  <basis>  (1) 
smirnoff

>  <program>  (1) 
openmm

>  <initial_energy>  (1) 
-13.604314830983618 kilocalorie / mole

>  <final_energy>  (1) 
-23.448079951520757 kilocalorie / mole

$$$$
