BRI-01231-07
     RDKit          3D

 32 33  0  0  0  0  0  0  0  0999 V2000
   -4.4115    0.0261   -1.1481 C   0  0  0  0  0  0  0  0  0  0  0  0
   -3.0798    0.1173   -0.6154 O   0  0  0  0  0  0  0  0  0  0  0  0
   -2.5159   -1.0654   -0.1748 C   0  0  0  0  0  0  0  0  0  0  0  0
   -1.7052   -1.0666    0.9831 C   0  0  0  0  0  0  0  0  0  0  0  0
   -1.4541    0.0722    1.7225 O   0  0  0  0  0  0  0  0  0  0  0  0
   -0.9092    1.1567    1.0586 C   0  0  0  0  0  0  0  0  0  0  0  0
   -1.1843    2.4513    1.5268 C   0  0  0  0  0  0  0  0  0  0  0  0
   -0.6972    3.5789    0.9648 N   0  0  0  0  0  0  0  0  0  0  0  0
    0.1108    3.4605   -0.1231 C   0  0  0  0  0  0  0  0  0  0  0  0
    0.4348    2.1888   -0.6382 C   0  0  0  0  0  0  0  0  0  0  0  0
   -0.0670    1.0286   -0.0508 C   0  0  0  0  0  0  0  0  0  0  0  0
    0.6937    4.6985   -0.8145 C   0  0  0  0  0  0  0  0  0  0  0  0
    2.0577    4.6306   -0.7999 F   0  0  0  0  0  0  0  0  0  0  0  0
    0.3181    5.8702   -0.2214 F   0  0  0  0  0  0  0  0  0  0  0  0
    0.2873    4.7291   -2.1180 F   0  0  0  0  0  0  0  0  0  0  0  0
   -1.1721   -2.2724    1.4464 C   0  0  0  0  0  0  0  0  0  0  0  0
   -1.3910   -3.4719    0.7620 C   0  0  0  0  0  0  0  0  0  0  0  0
   -2.1553   -3.4903   -0.4209 C   0  0  0  0  0  0  0  0  0  0  0  0
   -2.7126   -2.2750   -0.8667 C   0  0  0  0  0  0  0  0  0  0  0  0
   -2.3955   -4.7400   -1.1765 C   0  0  0  0  0  0  0  0  0  0  0  0
   -1.5592   -5.7924   -0.9584 O   0  0  0  0  0  0  0  0  0  0  0  0
   -3.3273   -4.7490   -1.9709 O   0  0  0  0  0  0  0  0  0  0  0  0
   -4.9252    0.9826   -1.0138 H   0  0  0  0  0  0  0  0  0  0  0  0
   -4.9915   -0.7473   -0.6338 H   0  0  0  0  0  0  0  0  0  0  0  0
   -4.3776   -0.1999   -2.2182 H   0  0  0  0  0  0  0  0  0  0  0  0
   -1.8300    2.5536    2.3938 H   0  0  0  0  0  0  0  0  0  0  0  0
    1.0846    2.1164   -1.5060 H   0  0  0  0  0  0  0  0  0  0  0  0
    0.1931    0.0542   -0.4535 H   0  0  0  0  0  0  0  0  0  0  0  0
   -0.5837   -2.2626    2.3597 H   0  0  0  0  0  0  0  0  0  0  0  0
   -0.9728   -4.3809    1.1849 H   0  0  0  0  0  0  0  0  0  0  0  0
   -3.3044   -2.2808   -1.7781 H   0  0  0  0  0  0  0  0  0  0  0  0
   -0.8396   -5.5004   -0.3894 H   0  0  0  0  0  0  0  0  0  0  0  0
  1  2  1  0
  1 23  1  0
  1 24  1  0
  1 25  1  0
  2  3  1  0
  3  4  2  0
  3 19  1  0
  4  5  1  0
  4 16  1  0
  5  6  1  0
  6  7  2  0
  6 11  1  0
  7  8  1  0
  7 26  1  0
  8  9  2  0
  9 10  1  0
  9 12  1  0
 10 11  2  0
 10 27  1  0
 11 28  1  0
 12 13  1  0
 12 14  1  0
 12 15  1  0
 16 17  2  0
 16 29  1  0
 17 18  1  0
 17 30  1  0
 18 19  2  0
 18 20  1  0
 19 31  1  0
 20 21  1  0
 20 22  2  0
 21 32  1  0
M  END
>  <group_name>  (1) 
BRI

>  <molecule_index>  (1) 
01231

>  <conformer_index>  (1) 
07

>  <method>  (1) 
openff-1.3.0

>  <basis>  (1) 
smirnoff

>  <program>  (1) 
openmm

>  <initial_energy>  (1) 
109.0879098415364 kilocalorie / mole

>  <final_energy>  (1) 
101.13540865085639 kilocalorie / mole

$$$$
