BRI-01231-08
     RDKit          3D

 32 33  0  0  0  0  0  0  0  0999 V2000
   -3.3739    0.3115   -1.4072 C   0  0  0  0  0  0  0  0  0  0  0  0
   -3.1568    0.0759   -0.0058 O   0  0  0  0  0  0  0  0  0  0  0  0
   -2.5230   -1.1120    0.3017 C   0  0  0  0  0  0  0  0  0  0  0  0
   -1.4469   -1.1265    1.2203 C   0  0  0  0  0  0  0  0  0  0  0  0
   -0.9626    0.0167    1.8264 O   0  0  0  0  0  0  0  0  0  0  0  0
   -0.5960    1.0574    0.9935 C   0  0  0  0  0  0  0  0  0  0  0  0
   -0.0968    0.8717   -0.3134 C   0  0  0  0  0  0  0  0  0  0  0  0
    0.2444    1.8845   -1.1387 N   0  0  0  0  0  0  0  0  0  0  0  0
    0.1182    3.1600   -0.6815 C   0  0  0  0  0  0  0  0  0  0  0  0
   -0.3539    3.4092    0.6236 C   0  0  0  0  0  0  0  0  0  0  0  0
   -0.7111    2.3586    1.4672 C   0  0  0  0  0  0  0  0  0  0  0  0
    0.4830    4.3569   -1.5672 C   0  0  0  0  0  0  0  0  0  0  0  0
    1.4540    5.1000   -0.9592 F   0  0  0  0  0  0  0  0  0  0  0  0
    0.9355    3.9886   -2.8024 F   0  0  0  0  0  0  0  0  0  0  0  0
   -0.6154    5.1508   -1.7356 F   0  0  0  0  0  0  0  0  0  0  0  0
   -0.8518   -2.3452    1.5570 C   0  0  0  0  0  0  0  0  0  0  0  0
   -1.2887   -3.5428    0.9838 C   0  0  0  0  0  0  0  0  0  0  0  0
   -2.3509   -3.5536    0.0626 C   0  0  0  0  0  0  0  0  0  0  0  0
   -2.9614   -2.3247   -0.2591 C   0  0  0  0  0  0  0  0  0  0  0  0
   -2.8164   -4.8221   -0.5387 C   0  0  0  0  0  0  0  0  0  0  0  0
   -3.8375   -4.7793   -1.4275 O   0  0  0  0  0  0  0  0  0  0  0  0
   -2.2556   -5.8591   -0.2104 O   0  0  0  0  0  0  0  0  0  0  0  0
   -4.3683   -0.0389   -1.6996 H   0  0  0  0  0  0  0  0  0  0  0  0
   -2.6200   -0.1956   -2.0186 H   0  0  0  0  0  0  0  0  0  0  0  0
   -3.3096    1.3844   -1.6116 H   0  0  0  0  0  0  0  0  0  0  0  0
    0.0235   -0.1375   -0.6952 H   0  0  0  0  0  0  0  0  0  0  0  0
   -0.4440    4.4344    0.9721 H   0  0  0  0  0  0  0  0  0  0  0  0
   -1.0843    2.5387    2.4717 H   0  0  0  0  0  0  0  0  0  0  0  0
   -0.0350   -2.3526    2.2728 H   0  0  0  0  0  0  0  0  0  0  0  0
   -0.8001   -4.4745    1.2621 H   0  0  0  0  0  0  0  0  0  0  0  0
   -3.8039   -2.3122   -0.9437 H   0  0  0  0  0  0  0  0  0  0  0  0
   -3.9769   -5.7022   -1.6875 H   0  0  0  0  0  0  0  0  0  0  0  0
  1  2  1  0
  1 23  1  0
  1 24  1  0
  1 25  1  0
  2  3  1  0
  3  4  2  0
  3 19  1  0
  4  5  1  0
  4 16  1  0
  5  6  1  0
  6  7  2  0
  6 11  1  0
  7  8  1  0
  7 26  1  0
  8  9  2  0
  9 10  1  0
  9 12  1  0
 10 11  2  0
 10 27  1  0
 11 28  1  0
 12 13  1  0
 12 14  1  0
 12 15  1  0
 16 17  2  0
 16 29  1  0
 17 18  1  0
 17 30  1  0
 18 19  2  0
 18 20  1  0
 19 31  1  0
 20 21  1  0
 20 22  2  0
 21 32  1  0
M  END
>  <group_name>  (1) 
BRI

>  <molecule_index>  (1) 
01231

>  <conformer_index>  (1) 
08

>  <method>  (1) 
openff-1.3.0

>  <basis>  (1) 
smirnoff

>  <program>  (1) 
openmm

>  <initial_energy>  (1) 
100.0760955505944 kilocalorie / mole

>  <final_energy>  (1) 
92.36711273899793 kilocalorie / mole

$$$$
