BRI-00638-03
     RDKit          3D

 45 45  0  0  0  0  0  0  0  0999 V2000
   -3.5376    8.0388    0.0911 C   0  0  0  0  0  0  0  0  0  0  0  0
   -2.7606    7.3608    1.2122 C   0  0  0  0  0  0  0  0  0  0  0  0
   -1.8405    6.4113    0.6524 O   0  0  0  0  0  0  0  0  0  0  0  0
   -2.3330    5.0614    0.6632 C   0  0  0  0  0  0  0  0  0  0  0  0
   -1.4487    4.1923   -0.2248 C   0  0  0  0  0  0  0  0  0  0  0  0
   -1.8902    2.7923   -0.1622 N   0  0  0  0  0  0  0  0  0  0  0  0
   -0.9846    1.7007   -1.1254 S   0  0  0  0  0  0  0  0  0  0  0  0
   -0.4092    2.4163   -2.2713 O   0  0  0  0  0  0  0  0  0  0  0  0
   -1.8661    0.6045   -1.5425 O   0  0  0  0  0  0  0  0  0  0  0  0
    0.3273    1.0399   -0.0478 C   0  0  0  0  0  0  0  0  0  0  0  0
    1.3340    0.2524   -0.9229 C   0  0  0  0  0  0  0  0  0  0  0  0
    1.1488    2.1315    0.6815 C   0  0  0  0  0  0  0  0  0  0  0  0
   -0.4963    0.2337    0.9548 C   0  0  0  0  0  0  0  0  0  0  0  0
   -1.1940    0.8676    1.7391 O   0  0  0  0  0  0  0  0  0  0  0  0
   -0.1415   -0.9941    1.4312 N   0  0  0  0  0  0  0  0  0  0  0  0
    0.0762   -2.1445    0.7165 C   0  0  0  0  0  0  0  0  0  0  0  0
   -0.4874   -2.3893   -0.5382 C   0  0  0  0  0  0  0  0  0  0  0  0
   -0.2464   -3.5942   -1.1820 C   0  0  0  0  0  0  0  0  0  0  0  0
    0.5446   -4.5238   -0.5195 C   0  0  0  0  0  0  0  0  0  0  0  0
    1.0627   -4.2451    0.7613 C   0  0  0  0  0  0  0  0  0  0  0  0
    0.8078   -3.0523    1.3650 N   0  0  0  0  0  0  0  0  0  0  0  0
    1.9168   -5.3142    1.4566 C   0  0  0  0  0  0  0  0  0  0  0  0
    1.1963   -6.4666    1.5912 F   0  0  0  0  0  0  0  0  0  0  0  0
    3.0181   -5.5887    0.6967 F   0  0  0  0  0  0  0  0  0  0  0  0
    2.3415   -4.9313    2.6978 F   0  0  0  0  0  0  0  0  0  0  0  0
   -2.8471    8.5386   -0.5949 H   0  0  0  0  0  0  0  0  0  0  0  0
   -4.1220    7.3015   -0.4672 H   0  0  0  0  0  0  0  0  0  0  0  0
   -4.2203    8.7849    0.5078 H   0  0  0  0  0  0  0  0  0  0  0  0
   -2.2017    8.1142    1.7761 H   0  0  0  0  0  0  0  0  0  0  0  0
   -3.4577    6.8768    1.9048 H   0  0  0  0  0  0  0  0  0  0  0  0
   -2.3157    4.6739    1.6866 H   0  0  0  0  0  0  0  0  0  0  0  0
   -3.3637    5.0198    0.2958 H   0  0  0  0  0  0  0  0  0  0  0  0
   -0.4077    4.2989    0.0918 H   0  0  0  0  0  0  0  0  0  0  0  0
   -1.5178    4.5589   -1.2554 H   0  0  0  0  0  0  0  0  0  0  0  0
   -1.8587    2.3886    0.7733 H   0  0  0  0  0  0  0  0  0  0  0  0
    0.8268   -0.4491   -1.5893 H   0  0  0  0  0  0  0  0  0  0  0  0
    1.8955    0.9372   -1.5680 H   0  0  0  0  0  0  0  0  0  0  0  0
    2.0518   -0.2943   -0.3023 H   0  0  0  0  0  0  0  0  0  0  0  0
    1.9274    1.6714    1.2992 H   0  0  0  0  0  0  0  0  0  0  0  0
    1.6302    2.8000   -0.0407 H   0  0  0  0  0  0  0  0  0  0  0  0
    0.5236    2.7361    1.3449 H   0  0  0  0  0  0  0  0  0  0  0  0
   -0.2409   -1.1273    2.4293 H   0  0  0  0  0  0  0  0  0  0  0  0
   -1.1336   -1.6608   -1.0127 H   0  0  0  0  0  0  0  0  0  0  0  0
   -0.6705   -3.8042   -2.1621 H   0  0  0  0  0  0  0  0  0  0  0  0
    0.7580   -5.4814   -0.9862 H   0  0  0  0  0  0  0  0  0  0  0  0
  1  2  1  0
  1 26  1  0
  1 27  1  0
  1 28  1  0
  2  3  1  0
  2 29  1  0
  2 30  1  0
  3  4  1  0
  4  5  1  0
  4 31  1  0
  4 32  1  0
  5  6  1  0
  5 33  1  0
  5 34  1  0
  6  7  1  0
  6 35  1  0
  7  8  2  0
  7  9  2  0
  7 10  1  0
 10 11  1  0
 10 12  1  0
 10 13  1  0
 11 36  1  0
 11 37  1  0
 11 38  1  0
 12 39  1  0
 12 40  1  0
 12 41  1  0
 13 14  2  0
 13 15  1  0
 15 16  1  0
 15 42  1  0
 16 17  2  0
 16 21  1  0
 17 18  1  0
 17 43  1  0
 18 19  2  0
 18 44  1  0
 19 20  1  0
 19 45  1  0
 20 21  2  0
 20 22  1  0
 22 23  1  0
 22 24  1  0
 22 25  1  0
M  END
>  <group_name>  (1) 
BRI

>  <molecule_index>  (1) 
00638

>  <conformer_index>  (1) 
03

>  <method>  (1) 
openff-1.3.0

>  <basis>  (1) 
smirnoff

>  <program>  (1) 
openmm

>  <initial_energy>  (1) 
-84.47740431390608 kilocalorie / mole

>  <final_energy>  (1) 
-108.66083317885774 kilocalorie / mole

$$$$
