BRI-01456-06
     RDKit          3D

 42 42  0  0  0  0  0  0  0  0999 V2000
   -1.3741    5.7744    2.1249 C   0  0  0  0  0  0  0  0  0  0  0  0
   -1.5583    4.2569    2.2658 C   0  0  0  0  0  0  0  0  0  0  0  0
   -2.0319    3.9351    3.6875 C   0  0  0  0  0  0  0  0  0  0  0  0
   -2.5775    3.6935    1.2513 C   0  0  0  0  0  0  0  0  0  0  0  0
   -2.1658    3.8584   -0.2326 C   0  0  2  0  0  0  0  0  0  0  0  0
   -3.2181    3.2467   -1.1888 C   0  0  0  0  0  0  0  0  0  0  0  0
   -4.6319    3.8833   -1.1410 C   0  0  2  0  0  0  0  0  0  0  0  0
   -5.5774    3.0979   -2.0474 C   0  0  0  0  0  0  0  0  0  0  0  0
   -6.4013    3.6610   -2.9687 N   0  0  0  0  0  0  0  0  0  0  0  0
   -5.6182    1.8799   -2.0052 O   0  0  0  0  0  0  0  0  0  0  0  0
   -4.6043    5.6470   -1.6289 S   0  0  0  0  0  0  0  0  0  0  0  0
   -4.1673    6.3975   -0.2481 O   0  0  0  0  0  0  0  0  0  0  0  0
   -6.0225    6.0349   -1.5448 O   0  0  0  0  0  0  0  0  0  0  0  0
   -0.8201    3.2054   -0.4956 C   0  0  0  0  0  0  0  0  0  0  0  0
   -0.6837    1.8809   -0.2829 N   0  0  0  0  0  0  0  0  0  0  0  0
    0.5198    1.2886   -0.5080 C   0  0  0  0  0  0  0  0  0  0  0  0
    1.6160    2.0474   -0.9628 C   0  0  0  0  0  0  0  0  0  0  0  0
    1.4899    3.4122   -1.1886 C   0  0  0  0  0  0  0  0  0  0  0  0
    0.2503    3.9900   -0.9484 C   0  0  0  0  0  0  0  0  0  0  0  0
    0.7180   -0.2139   -0.2695 C   0  0  0  0  0  0  0  0  0  0  0  0
   -0.4031   -0.8342    0.2047 F   0  0  0  0  0  0  0  0  0  0  0  0
    1.7237   -0.4072    0.6348 F   0  0  0  0  0  0  0  0  0  0  0  0
    1.0810   -0.8204   -1.4384 F   0  0  0  0  0  0  0  0  0  0  0  0
   -2.3391    6.2873    2.1876 H   0  0  0  0  0  0  0  0  0  0  0  0
   -0.7258    6.1536    2.9210 H   0  0  0  0  0  0  0  0  0  0  0  0
   -0.9039    6.0235    1.1700 H   0  0  0  0  0  0  0  0  0  0  0  0
   -0.5885    3.7701    2.1198 H   0  0  0  0  0  0  0  0  0  0  0  0
   -2.9983    4.4077    3.8902 H   0  0  0  0  0  0  0  0  0  0  0  0
   -1.3052    4.2958    4.4222 H   0  0  0  0  0  0  0  0  0  0  0  0
   -2.1370    2.8534    3.8177 H   0  0  0  0  0  0  0  0  0  0  0  0
   -2.7266    2.6275    1.4568 H   0  0  0  0  0  0  0  0  0  0  0  0
   -3.5372    4.1889    1.4230 H   0  0  0  0  0  0  0  0  0  0  0  0
   -2.0748    4.9223   -0.4559 H   0  0  0  0  0  0  0  0  0  0  0  0
   -2.8425    3.3105   -2.2160 H   0  0  0  0  0  0  0  0  0  0  0  0
   -3.3068    2.1791   -0.9541 H   0  0  0  0  0  0  0  0  0  0  0  0
   -5.0382    3.8152   -0.1325 H   0  0  0  0  0  0  0  0  0  0  0  0
   -6.6621    4.6316   -2.7938 H   0  0  0  0  0  0  0  0  0  0  0  0
   -7.0900    3.0165   -3.3439 H   0  0  0  0  0  0  0  0  0  0  0  0
   -4.9686    6.8680    0.0378 H   0  0  0  0  0  0  0  0  0  0  0  0
    2.5689    1.5555   -1.1364 H   0  0  0  0  0  0  0  0  0  0  0  0
    2.3321    4.0053   -1.5383 H   0  0  0  0  0  0  0  0  0  0  0  0
    0.1134    5.0540   -1.1082 H   0  0  0  0  0  0  0  0  0  0  0  0
  1  2  1  0
  1 24  1  0
  1 25  1  0
  1 26  1  0
  2  3  1  0
  2  4  1  0
  2 27  1  0
  3 28  1  0
  3 29  1  0
  3 30  1  0
  4  5  1  0
  4 31  1  0
  4 32  1  0
  5  6  1  0
  5 14  1  0
  5 33  1  6
  6  7  1  0
  6 34  1  0
  6 35  1  0
  7  8  1  0
  7 11  1  0
  7 36  1  1
  8  9  1  0
  8 10  2  0
  9 37  1  0
  9 38  1  0
 11 12  1  1
 11 13  2  0
 12 39  1  0
 14 15  2  0
 14 19  1  0
 15 16  1  0
 16 17  2  0
 16 20  1  0
 17 18  1  0
 17 40  1  0
 18 19  2  0
 18 41  1  0
 19 42  1  0
 20 21  1  0
 20 22  1  0
 20 23  1  0
M  END
>  <group_name>  (1) 
BRI

>  <molecule_index>  (1) 
01456

>  <conformer_index>  (1) 
06

>  <method>  (1) 
openff-1.3.0

>  <basis>  (1) 
smirnoff

>  <program>  (1) 
openmm

>  <initial_energy>  (1) 
-20.11122738603306 kilocalorie / mole

>  <final_energy>  (1) 
-48.73038163507139 kilocalorie / mole

$$$$
