BRI-00647-08
     RDKit          3D

 40 40  0  0  0  0  0  0  0  0999 V2000
    0.5915   -0.0728    4.3729 C   0  0  0  0  0  0  0  0  0  0  0  0
   -0.7241   -0.5805    4.9890 C   0  0  0  0  0  0  0  0  0  0  0  0
   -0.6256   -0.4320    6.5107 C   0  0  0  0  0  0  0  0  0  0  0  0
   -0.9469   -2.0679    4.6682 C   0  0  0  0  0  0  0  0  0  0  0  0
   -1.8549    0.2376    4.6205 O   0  0  0  0  0  0  0  0  0  0  0  0
   -2.2100    0.3368    3.3149 C   0  0  0  0  0  0  0  0  0  0  0  0
   -1.6823   -0.2292    2.3651 O   0  0  0  0  0  0  0  0  0  0  0  0
   -3.2653    1.1837    3.0859 N   0  0  0  0  0  0  0  0  0  0  0  0
   -3.8968    1.4011    1.7687 C   0  0  1  0  0  0  0  0  0  0  0  0
   -3.1675    2.5236    0.9835 C   0  0  0  0  0  0  0  0  0  0  0  0
   -1.6690    2.3428    0.8221 C   0  0  0  0  0  0  0  0  0  0  0  0
   -1.1208    1.7203   -0.3128 C   0  0  0  0  0  0  0  0  0  0  0  0
    0.2024    1.5573   -0.5096 N   0  0  0  0  0  0  0  0  0  0  0  0
    1.0572    2.0007    0.4492 C   0  0  0  0  0  0  0  0  0  0  0  0
    0.5696    2.6542    1.5975 C   0  0  0  0  0  0  0  0  0  0  0  0
   -0.7946    2.8410    1.7869 C   0  0  0  0  0  0  0  0  0  0  0  0
    2.5721    1.8101    0.3085 C   0  0  0  0  0  0  0  0  0  0  0  0
    2.9290    1.1479   -0.8321 F   0  0  0  0  0  0  0  0  0  0  0  0
    3.1887    3.0293    0.3023 F   0  0  0  0  0  0  0  0  0  0  0  0
    3.0502    1.1059    1.3777 F   0  0  0  0  0  0  0  0  0  0  0  0
   -4.1670    0.0979    0.9808 C   0  0  0  0  0  0  0  0  0  0  0  0
   -3.7768   -0.0018   -0.3125 O   0  0  0  0  0  0  0  0  0  0  0  0
   -4.7908   -0.7778    1.5667 O   0  0  0  0  0  0  0  0  0  0  0  0
    0.6890    1.0062    4.5241 H   0  0  0  0  0  0  0  0  0  0  0  0
    1.4491   -0.5696    4.8363 H   0  0  0  0  0  0  0  0  0  0  0  0
    0.6354   -0.2788    3.2997 H   0  0  0  0  0  0  0  0  0  0  0  0
   -0.4714    0.6172    6.7812 H   0  0  0  0  0  0  0  0  0  0  0  0
   -1.5481   -0.7789    6.9865 H   0  0  0  0  0  0  0  0  0  0  0  0
    0.2094   -1.0179    6.9072 H   0  0  0  0  0  0  0  0  0  0  0  0
   -1.9308   -2.3886    5.0235 H   0  0  0  0  0  0  0  0  0  0  0  0
   -0.1825   -2.6838    5.1514 H   0  0  0  0  0  0  0  0  0  0  0  0
   -0.8882   -2.2568    3.5927 H   0  0  0  0  0  0  0  0  0  0  0  0
   -3.7808    1.4130    3.9284 H   0  0  0  0  0  0  0  0  0  0  0  0
   -4.9051    1.7791    1.9580 H   0  0  0  0  0  0  0  0  0  0  0  0
   -3.6328    2.6394   -0.0012 H   0  0  0  0  0  0  0  0  0  0  0  0
   -3.3360    3.4679    1.5104 H   0  0  0  0  0  0  0  0  0  0  0  0
   -1.7861    1.3620   -1.0913 H   0  0  0  0  0  0  0  0  0  0  0  0
    1.2715    3.0100    2.3455 H   0  0  0  0  0  0  0  0  0  0  0  0
   -1.1650    3.3409    2.6781 H   0  0  0  0  0  0  0  0  0  0  0  0
   -3.9709   -0.9185   -0.5618 H   0  0  0  0  0  0  0  0  0  0  0  0
  1  2  1  0
  1 24  1  0
  1 25  1  0
  1 26  1  0
  2  3  1  0
  2  4  1  0
  2  5  1  0
  3 27  1  0
  3 28  1  0
  3 29  1  0
  4 30  1  0
  4 31  1  0
  4 32  1  0
  5  6  1  0
  6  7  2  0
  6  8  1  0
  8  9  1  0
  8 33  1  0
  9 10  1  0
  9 21  1  0
  9 34  1  1
 10 11  1  0
 10 35  1  0
 10 36  1  0
 11 12  2  0
 11 16  1  0
 12 13  1  0
 12 37  1  0
 13 14  2  0
 14 15  1  0
 14 17  1  0
 15 16  2  0
 15 38  1  0
 16 39  1  0
 17 18  1  0
 17 19  1  0
 17 20  1  0
 21 22  1  0
 21 23  2  0
 22 40  1  0
M  END
>  <group_name>  (1) 
BRI

>  <molecule_index>  (1) 
00647

>  <conformer_index>  (1) 
08

>  <method>  (1) 
openff-1.3.0

>  <basis>  (1) 
smirnoff

>  <program>  (1) 
openmm

>  <initial_energy>  (1) 
26.14567089483307 kilocalorie / mole

>  <final_energy>  (1) 
15.626814088620785 kilocalorie / mole

$$$$
