BRI-00593-05
     RDKit          3D

 36 38  0  0  0  0  0  0  0  0999 V2000
    4.4663    5.3667   -1.9084 C   0  0  0  0  0  0  0  0  0  0  0  0
    4.4808    4.6407   -0.5670 C   0  0  0  0  0  0  0  0  0  0  0  0
    3.1503    4.2300   -0.2054 O   0  0  0  0  0  0  0  0  0  0  0  0
    2.7162    3.0669   -0.7564 C   0  0  0  0  0  0  0  0  0  0  0  0
    3.3906    2.3068   -1.4502 O   0  0  0  0  0  0  0  0  0  0  0  0
    1.3641    2.6165   -0.4290 C   0  0  0  0  0  0  0  0  0  0  0  0
    0.2499    3.4979   -0.3532 C   0  0  0  0  0  0  0  0  0  0  0  0
   -0.9741    3.0186    0.0002 N   0  0  0  0  0  0  0  0  0  0  0  0
   -1.1420    1.7201    0.2578 C   0  0  0  0  0  0  0  0  0  0  0  0
   -0.0901    0.8158    0.1674 C   0  0  0  0  0  0  0  0  0  0  0  0
    1.1731    1.2574   -0.1802 C   0  0  0  0  0  0  0  0  0  0  0  0
   -2.4249    1.3059    0.6135 N   0  0  0  0  0  0  0  0  0  0  0  0
   -2.7769   -0.0897    0.9021 C   0  0  0  0  0  0  0  0  0  0  0  0
   -4.2741   -0.0376    1.1817 C   0  0  2  0  0  0  0  0  0  0  0  0
   -5.1612    0.3775    0.0084 C   0  0  0  0  0  0  0  0  0  0  0  0
   -4.7368    1.4024    1.0593 C   0  0  2  0  0  0  0  0  0  0  0  0
   -3.5347    2.2669    0.7005 C   0  0  0  0  0  0  0  0  0  0  0  0
    0.3365    4.9938   -0.7465 C   0  0  0  0  0  0  0  0  0  0  0  0
    1.0614    5.1817   -1.8905 F   0  0  0  0  0  0  0  0  0  0  0  0
   -0.8970    5.5231   -1.0143 F   0  0  0  0  0  0  0  0  0  0  0  0
    0.8618    5.7426    0.2684 F   0  0  0  0  0  0  0  0  0  0  0  0
    5.4735    5.7137   -2.1556 H   0  0  0  0  0  0  0  0  0  0  0  0
    3.7981    6.2317   -1.8601 H   0  0  0  0  0  0  0  0  0  0  0  0
    4.1244    4.6968   -2.7031 H   0  0  0  0  0  0  0  0  0  0  0  0
    4.8635    5.3173    0.2035 H   0  0  0  0  0  0  0  0  0  0  0  0
    5.1632    3.7848   -0.6133 H   0  0  0  0  0  0  0  0  0  0  0  0
   -0.2406   -0.2359    0.3694 H   0  0  0  0  0  0  0  0  0  0  0  0
    2.0031    0.5548   -0.2475 H   0  0  0  0  0  0  0  0  0  0  0  0
   -2.2399   -0.4534    1.7846 H   0  0  0  0  0  0  0  0  0  0  0  0
   -2.5715   -0.7414    0.0460 H   0  0  0  0  0  0  0  0  0  0  0  0
   -4.6631   -0.6654    1.9892 H   0  0  0  0  0  0  0  0  0  0  0  0
   -6.2038    0.0447    0.0110 H   0  0  0  0  0  0  0  0  0  0  0  0
   -4.6970    0.4458   -0.9816 H   0  0  0  0  0  0  0  0  0  0  0  0
   -5.4565    1.8068    1.7776 H   0  0  0  0  0  0  0  0  0  0  0  0
   -3.3470    3.0085    1.4845 H   0  0  0  0  0  0  0  0  0  0  0  0
   -3.6972    2.7798   -0.2539 H   0  0  0  0  0  0  0  0  0  0  0  0
  1  2  1  0
  1 22  1  0
  1 23  1  0
  1 24  1  0
  2  3  1  0
  2 25  1  0
  2 26  1  0
  3  4  1  0
  4  5  2  0
  4  6  1  0
  6  7  2  0
  6 11  1  0
  7  8  1  0
  7 18  1  0
  8  9  2  0
  9 10  1  0
  9 12  1  0
 10 11  2  0
 10 27  1  0
 11 28  1  0
 12 13  1  0
 12 17  1  0
 13 14  1  0
 13 29  1  0
 13 30  1  0
 14 15  1  0
 14 16  1  0
 14 31  1  1
 15 16  1  0
 15 32  1  0
 15 33  1  0
 16 17  1  0
 16 34  1  1
 17 35  1  0
 17 36  1  0
 18 19  1  0
 18 20  1  0
 18 21  1  0
M  END
>  <group_name>  (1) 
BRI

>  <molecule_index>  (1) 
00593

>  <conformer_index>  (1) 
05

>  <method>  (1) 
openff-1.3.0

>  <basis>  (1) 
smirnoff

>  <program>  (1) 
openmm

>  <initial_energy>  (1) 
24.88231682103688 kilocalorie / mole

>  <final_energy>  (1) 
15.22340356167042 kilocalorie / mole

$$$$
