BRI-00638-04
     RDKit          3D

 45 45  0  0  0  0  0  0  0  0999 V2000
   -3.4347    6.1906   -1.7339 C   0  0  0  0  0  0  0  0  0  0  0  0
   -2.9894    4.7526   -1.9647 C   0  0  0  0  0  0  0  0  0  0  0  0
   -2.3024    4.2720   -0.7989 O   0  0  0  0  0  0  0  0  0  0  0  0
   -0.8677    4.3068   -0.9198 C   0  0  0  0  0  0  0  0  0  0  0  0
   -0.2360    4.0088    0.4388 C   0  0  0  0  0  0  0  0  0  0  0  0
   -0.7418    2.7215    0.9377 N   0  0  0  0  0  0  0  0  0  0  0  0
   -0.2732    2.3470    2.5399 S   0  0  0  0  0  0  0  0  0  0  0  0
   -1.4362    1.6732    3.1180 O   0  0  0  0  0  0  0  0  0  0  0  0
    0.0702    3.6025    3.2183 O   0  0  0  0  0  0  0  0  0  0  0  0
    1.1513    1.2345    2.3453 C   0  0  0  0  0  0  0  0  0  0  0  0
    2.2375    1.7636    1.3819 C   0  0  0  0  0  0  0  0  0  0  0  0
    1.8109    1.0375    3.7325 C   0  0  0  0  0  0  0  0  0  0  0  0
    0.5241   -0.0481    1.8134 C   0  0  0  0  0  0  0  0  0  0  0  0
    0.5979   -1.0696    2.4849 O   0  0  0  0  0  0  0  0  0  0  0  0
   -0.0744   -0.0462    0.5766 N   0  0  0  0  0  0  0  0  0  0  0  0
   -0.5871   -1.1480   -0.0746 C   0  0  0  0  0  0  0  0  0  0  0  0
   -1.7186   -0.9578   -0.8697 C   0  0  0  0  0  0  0  0  0  0  0  0
   -2.2568   -2.0191   -1.5845 C   0  0  0  0  0  0  0  0  0  0  0  0
   -1.6136   -3.2456   -1.4837 C   0  0  0  0  0  0  0  0  0  0  0  0
   -0.4571   -3.3883   -0.6907 C   0  0  0  0  0  0  0  0  0  0  0  0
    0.0447   -2.3264   -0.0086 N   0  0  0  0  0  0  0  0  0  0  0  0
    0.2283   -4.7606   -0.6329 C   0  0  0  0  0  0  0  0  0  0  0  0
   -0.6179   -5.6768   -0.0759 F   0  0  0  0  0  0  0  0  0  0  0  0
    1.3914   -4.7551    0.0840 F   0  0  0  0  0  0  0  0  0  0  0  0
    0.5220   -5.1801   -1.9002 F   0  0  0  0  0  0  0  0  0  0  0  0
   -3.9837    6.5563   -2.6064 H   0  0  0  0  0  0  0  0  0  0  0  0
   -4.0900    6.2449   -0.8592 H   0  0  0  0  0  0  0  0  0  0  0  0
   -2.5672    6.8363   -1.5693 H   0  0  0  0  0  0  0  0  0  0  0  0
   -2.3500    4.7020   -2.8527 H   0  0  0  0  0  0  0  0  0  0  0  0
   -3.8663    4.1247   -2.1508 H   0  0  0  0  0  0  0  0  0  0  0  0
   -0.5396    3.5544   -1.6442 H   0  0  0  0  0  0  0  0  0  0  0  0
   -0.5330    5.2893   -1.2679 H   0  0  0  0  0  0  0  0  0  0  0  0
   -0.5012    4.8197    1.1274 H   0  0  0  0  0  0  0  0  0  0  0  0
    0.8541    3.9965    0.3440 H   0  0  0  0  0  0  0  0  0  0  0  0
   -1.7503    2.8117    1.0656 H   0  0  0  0  0  0  0  0  0  0  0  0
    1.8443    1.9047    0.3709 H   0  0  0  0  0  0  0  0  0  0  0  0
    3.0661    1.0501    1.3170 H   0  0  0  0  0  0  0  0  0  0  0  0
    2.6320    2.7213    1.7378 H   0  0  0  0  0  0  0  0  0  0  0  0
    2.2111    1.9841    4.1111 H   0  0  0  0  0  0  0  0  0  0  0  0
    2.6298    0.3125    3.6738 H   0  0  0  0  0  0  0  0  0  0  0  0
    1.0792    0.6652    4.4586 H   0  0  0  0  0  0  0  0  0  0  0  0
   -0.3781    0.8656    0.2499 H   0  0  0  0  0  0  0  0  0  0  0  0
   -2.1880    0.0185   -0.9153 H   0  0  0  0  0  0  0  0  0  0  0  0
   -3.1475   -1.8972   -2.1970 H   0  0  0  0  0  0  0  0  0  0  0  0
   -1.9999   -4.1063   -2.0219 H   0  0  0  0  0  0  0  0  0  0  0  0
  1  2  1  0
  1 26  1  0
  1 27  1  0
  1 28  1  0
  2  3  1  0
  2 29  1  0
  2 30  1  0
  3  4  1  0
  4  5  1  0
  4 31  1  0
  4 32  1  0
  5  6  1  0
  5 33  1  0
  5 34  1  0
  6  7  1  0
  6 35  1  0
  7  8  2  0
  7  9  2  0
  7 10  1  0
 10 11  1  0
 10 12  1  0
 10 13  1  0
 11 36  1  0
 11 37  1  0
 11 38  1  0
 12 39  1  0
 12 40  1  0
 12 41  1  0
 13 14  2  0
 13 15  1  0
 15 16  1  0
 15 42  1  0
 16 17  2  0
 16 21  1  0
 17 18  1  0
 17 43  1  0
 18 19  2  0
 18 44  1  0
 19 20  1  0
 19 45  1  0
 20 21  2  0
 20 22  1  0
 22 23  1  0
 22 24  1  0
 22 25  1  0
M  END
>  <group_name>  (1) 
BRI

>  <molecule_index>  (1) 
00638

>  <conformer_index>  (1) 
04

>  <method>  (1) 
openff-1.3.0

>  <basis>  (1) 
smirnoff

>  <program>  (1) 
openmm

>  <initial_energy>  (1) 
-90.14522350330724 kilocalorie / mole

>  <final_energy>  (1) 
-108.88907209561971 kilocalorie / mole

$$$$
