BRI-01456-03
     RDKit          3D

 42 42  0  0  0  0  0  0  0  0999 V2000
   -1.0355    4.4457    3.2492 C   0  0  0  0  0  0  0  0  0  0  0  0
   -2.0198    3.9320    2.1912 C   0  0  0  0  0  0  0  0  0  0  0  0
   -3.4493    4.1110    2.7243 C   0  0  0  0  0  0  0  0  0  0  0  0
   -1.7972    4.6859    0.8552 C   0  0  0  0  0  0  0  0  0  0  0  0
   -1.9052    3.8321   -0.4339 C   0  0  2  0  0  0  0  0  0  0  0  0
   -3.2888    3.1767   -0.6580 C   0  0  0  0  0  0  0  0  0  0  0  0
   -4.4459    4.1855   -0.8354 C   0  0  2  0  0  0  0  0  0  0  0  0
   -5.7989    3.4944   -0.8820 C   0  0  0  0  0  0  0  0  0  0  0  0
   -6.9486    4.2007   -0.7341 N   0  0  0  0  0  0  0  0  0  0  0  0
   -5.9145    2.2794   -0.8225 O   0  0  0  0  0  0  0  0  0  0  0  0
   -4.2354    5.1837   -2.3493 S   0  0  0  0  0  0  0  0  0  0  0  0
   -5.3801    6.3392   -2.1798 O   0  0  0  0  0  0  0  0  0  0  0  0
   -4.9270    4.4053   -3.3863 O   0  0  0  0  0  0  0  0  0  0  0  0
   -0.7517    2.8382   -0.4984 C   0  0  0  0  0  0  0  0  0  0  0  0
    0.4123    3.3020   -0.9958 N   0  0  0  0  0  0  0  0  0  0  0  0
    1.4788    2.4643   -1.1040 C   0  0  0  0  0  0  0  0  0  0  0  0
    1.3729    1.1172   -0.7098 C   0  0  0  0  0  0  0  0  0  0  0  0
    0.1795    0.6186   -0.2056 C   0  0  0  0  0  0  0  0  0  0  0  0
   -0.8926    1.4949   -0.1044 C   0  0  0  0  0  0  0  0  0  0  0  0
    2.8210    2.9627   -1.6556 C   0  0  0  0  0  0  0  0  0  0  0  0
    2.7970    4.2832   -2.0067 F   0  0  0  0  0  0  0  0  0  0  0  0
    3.1656    2.2353   -2.7592 F   0  0  0  0  0  0  0  0  0  0  0  0
    3.7967    2.7914   -0.7152 F   0  0  0  0  0  0  0  0  0  0  0  0
   -1.1849    3.9206    4.1979 H   0  0  0  0  0  0  0  0  0  0  0  0
   -1.1735    5.5187    3.4176 H   0  0  0  0  0  0  0  0  0  0  0  0
   -0.0043    4.2707    2.9259 H   0  0  0  0  0  0  0  0  0  0  0  0
   -1.8295    2.8638    2.0589 H   0  0  0  0  0  0  0  0  0  0  0  0
   -3.6791    5.1716    2.8679 H   0  0  0  0  0  0  0  0  0  0  0  0
   -3.5608    3.6005    3.6860 H   0  0  0  0  0  0  0  0  0  0  0  0
   -4.1841    3.6838    2.0385 H   0  0  0  0  0  0  0  0  0  0  0  0
   -0.7959    5.1319    0.8565 H   0  0  0  0  0  0  0  0  0  0  0  0
   -2.4844    5.5352    0.7959 H   0  0  0  0  0  0  0  0  0  0  0  0
   -1.7408    4.5185   -1.2701 H   0  0  0  0  0  0  0  0  0  0  0  0
   -3.2456    2.5430   -1.5518 H   0  0  0  0  0  0  0  0  0  0  0  0
   -3.5223    2.5205    0.1853 H   0  0  0  0  0  0  0  0  0  0  0  0
   -4.4703    4.8691    0.0119 H   0  0  0  0  0  0  0  0  0  0  0  0
   -6.9116    5.1796   -1.0046 H   0  0  0  0  0  0  0  0  0  0  0  0
   -7.7875    3.6559   -0.9060 H   0  0  0  0  0  0  0  0  0  0  0  0
   -5.8373    6.3563   -3.0386 H   0  0  0  0  0  0  0  0  0  0  0  0
    2.2353    0.4634   -0.8047 H   0  0  0  0  0  0  0  0  0  0  0  0
    0.0869   -0.4219    0.0980 H   0  0  0  0  0  0  0  0  0  0  0  0
   -1.8308    1.1203    0.2878 H   0  0  0  0  0  0  0  0  0  0  0  0
  1  2  1  0
  1 24  1  0
  1 25  1  0
  1 26  1  0
  2  3  1  0
  2  4  1  0
  2 27  1  0
  3 28  1  0
  3 29  1  0
  3 30  1  0
  4  5  1  0
  4 31  1  0
  4 32  1  0
  5  6  1  0
  5 14  1  0
  5 33  1  6
  6  7  1  0
  6 34  1  0
  6 35  1  0
  7  8  1  0
  7 11  1  0
  7 36  1  1
  8  9  1  0
  8 10  2  0
  9 37  1  0
  9 38  1  0
 11 12  1  1
 11 13  2  0
 12 39  1  0
 14 15  2  0
 14 19  1  0
 15 16  1  0
 16 17  2  0
 16 20  1  0
 17 18  1  0
 17 40  1  0
 18 19  2  0
 18 41  1  0
 19 42  1  0
 20 21  1  0
 20 22  1  0
 20 23  1  0
M  END
>  <group_name>  (1) 
BRI

>  <molecule_index>  (1) 
01456

>  <conformer_index>  (1) 
03

>  <method>  (1) 
openff-1.3.0

>  <basis>  (1) 
smirnoff

>  <program>  (1) 
openmm

>  <initial_energy>  (1) 
-20.136483718344817 kilocalorie / mole

>  <final_energy>  (1) 
-39.43282197172898 kilocalorie / mole

$$$$
