BRI-01231-05
     RDKit          3D

 32 33  0  0  0  0  0  0  0  0999 V2000
   -3.4942    0.3053    0.8173 C   0  0  0  0  0  0  0  0  0  0  0  0
   -3.1226    0.0608   -0.5499 O   0  0  0  0  0  0  0  0  0  0  0  0
   -2.4465   -1.1223   -0.7743 C   0  0  0  0  0  0  0  0  0  0  0  0
   -1.2714   -1.1321   -1.5626 C   0  0  0  0  0  0  0  0  0  0  0  0
   -0.7297    0.0116   -2.1170 O   0  0  0  0  0  0  0  0  0  0  0  0
   -0.4768    1.0632   -1.2560 C   0  0  0  0  0  0  0  0  0  0  0  0
   -0.1311    0.8937    0.1008 C   0  0  0  0  0  0  0  0  0  0  0  0
    0.0951    1.9167    0.9518 N   0  0  0  0  0  0  0  0  0  0  0  0
    0.0050    3.1892    0.4771 C   0  0  0  0  0  0  0  0  0  0  0  0
   -0.3145    3.4221   -0.8801 C   0  0  0  0  0  0  0  0  0  0  0  0
   -0.5543    2.3591   -1.7497 C   0  0  0  0  0  0  0  0  0  0  0  0
    0.2503    4.3700    1.4291 C   0  0  0  0  0  0  0  0  0  0  0  0
    1.5155    4.3163    1.9389 F   0  0  0  0  0  0  0  0  0  0  0  0
    0.1125    5.5778    0.8041 F   0  0  0  0  0  0  0  0  0  0  0  0
   -0.6460    4.3410    2.4588 F   0  0  0  0  0  0  0  0  0  0  0  0
   -0.6310   -2.3474   -1.8196 C   0  0  0  0  0  0  0  0  0  0  0  0
   -1.1209   -3.5455   -1.2922 C   0  0  0  0  0  0  0  0  0  0  0  0
   -2.2821   -3.5606   -0.4997 C   0  0  0  0  0  0  0  0  0  0  0  0
   -2.9362   -2.3356   -0.2592 C   0  0  0  0  0  0  0  0  0  0  0  0
   -2.8030   -4.8298    0.0530 C   0  0  0  0  0  0  0  0  0  0  0  0
   -3.9201   -4.7912    0.8178 O   0  0  0  0  0  0  0  0  0  0  0  0
   -2.1993   -5.8635   -0.2012 O   0  0  0  0  0  0  0  0  0  0  0  0
   -2.8101   -0.1931    1.5122 H   0  0  0  0  0  0  0  0  0  0  0  0
   -3.4578    1.3800    1.0193 H   0  0  0  0  0  0  0  0  0  0  0  0
   -4.5130   -0.0486    1.0008 H   0  0  0  0  0  0  0  0  0  0  0  0
   -0.0414   -0.1111    0.5022 H   0  0  0  0  0  0  0  0  0  0  0  0
   -0.3834    4.4351   -1.2654 H   0  0  0  0  0  0  0  0  0  0  0  0
   -0.8098    2.5260   -2.7926 H   0  0  0  0  0  0  0  0  0  0  0  0
    0.2630   -2.3515   -2.4363 H   0  0  0  0  0  0  0  0  0  0  0  0
   -0.5954   -4.4742   -1.5056 H   0  0  0  0  0  0  0  0  0  0  0  0
   -3.8521   -2.3266    0.3236 H   0  0  0  0  0  0  0  0  0  0  0  0
   -4.0806   -5.7137    1.0666 H   0  0  0  0  0  0  0  0  0  0  0  0
  1  2  1  0
  1 23  1  0
  1 24  1  0
  1 25  1  0
  2  3  1  0
  3  4  2  0
  3 19  1  0
  4  5  1  0
  4 16  1  0
  5  6  1  0
  6  7  2  0
  6 11  1  0
  7  8  1  0
  7 26  1  0
  8  9  2  0
  9 10  1  0
  9 12  1  0
 10 11  2  0
 10 27  1  0
 11 28  1  0
 12 13  1  0
 12 14  1  0
 12 15  1  0
 16 17  2  0
 16 29  1  0
 17 18  1  0
 17 30  1  0
 18 19  2  0
 18 20  1  0
 19 31  1  0
 20 21  1  0
 20 22  2  0
 21 32  1  0
M  END
>  <group_name>  (1) 
BRI

>  <molecule_index>  (1) 
01231

>  <conformer_index>  (1) 
05

>  <method>  (1) 
openff-1.3.0

>  <basis>  (1) 
smirnoff

>  <program>  (1) 
openmm

>  <initial_energy>  (1) 
100.07612272581675 kilocalorie / mole

>  <final_energy>  (1) 
92.88053556695043 kilocalorie / mole

$$$$
