BRI-00649-06
     RDKit          3D

 53 55  0  0  0  0  0  0  0  0999 V2000
    7.7129   -0.9247   -2.5351 C   0  0  0  0  0  0  0  0  0  0  0  0
    6.3682   -0.4688   -1.9737 C   0  0  0  0  0  0  0  0  0  0  0  0
    6.0726   -1.0775   -0.6708 N   0  0  0  0  0  0  0  0  0  0  0  0
    6.1667   -0.2679    0.5648 C   0  0  1  0  0  0  0  0  0  0  0  0
    6.1989   -0.9354    1.4332 H   0  0  0  0  0  0  0  0  0  0  0  0
    7.4580    0.5557    0.6411 C   0  0  0  0  0  0  0  0  0  0  0  0
    4.9303    0.6309    0.7313 C   0  0  0  0  0  0  0  0  0  0  0  0
    3.7111   -0.1908    0.7315 N   0  0  0  0  0  0  0  0  0  0  0  0
    2.6536    0.1105   -0.0810 C   0  0  0  0  0  0  0  0  0  0  0  0
    2.1876    1.4130   -0.2337 C   0  0  0  0  0  0  0  0  0  0  0  0
    1.1214    1.6655   -1.0902 C   0  0  0  0  0  0  0  0  0  0  0  0
    0.5597    0.5890   -1.7704 C   0  0  0  0  0  0  0  0  0  0  0  0
   -0.4758    0.8215   -2.6190 F   0  0  0  0  0  0  0  0  0  0  0  0
    1.0798   -0.7143   -1.5674 C   0  0  0  0  0  0  0  0  0  0  0  0
    2.1286   -0.9302   -0.7198 N   0  0  0  0  0  0  0  0  0  0  0  0
    0.4566   -1.8861   -2.3379 C   0  0  0  0  0  0  0  0  0  0  0  0
    0.6352   -1.7049   -3.6807 F   0  0  0  0  0  0  0  0  0  0  0  0
    1.0250   -3.0869   -2.0193 F   0  0  0  0  0  0  0  0  0  0  0  0
   -0.8807   -1.9828   -2.0773 F   0  0  0  0  0  0  0  0  0  0  0  0
    5.5671   -2.3776   -0.5918 C   0  0  0  0  0  0  0  0  0  0  0  0
    5.1838   -2.8012    0.4990 O   0  0  0  0  0  0  0  0  0  0  0  0
    5.3937   -3.2534   -1.7653 C   0  0  0  0  0  0  0  0  0  0  0  0
    6.1953   -4.4124   -1.9448 C   0  0  0  0  0  0  0  0  0  0  0  0
    5.9685   -5.2428   -3.0601 C   0  0  0  0  0  0  0  0  0  0  0  0
    6.7382   -6.3363   -3.2999 F   0  0  0  0  0  0  0  0  0  0  0  0
    4.9489   -4.9362   -3.9663 C   0  0  0  0  0  0  0  0  0  0  0  0
    4.1425   -3.8137   -3.7793 C   0  0  0  0  0  0  0  0  0  0  0  0
    4.3658   -2.9805   -2.6843 C   0  0  0  0  0  0  0  0  0  0  0  0
    7.2470   -4.7589   -0.9811 C   0  0  0  0  0  0  0  0  0  0  0  0
    8.1697   -3.8217   -0.6895 N   0  0  0  0  0  0  0  0  0  0  0  0
    9.0991   -4.1306    0.2113 C   0  0  0  0  0  0  0  0  0  0  0  0
    9.1307   -5.3684    0.8108 C   0  0  0  0  0  0  0  0  0  0  0  0
    8.1714   -6.2875    0.4523 C   0  0  0  0  0  0  0  0  0  0  0  0
    7.2355   -5.9921   -0.4450 N   0  0  0  0  0  0  0  0  0  0  0  0
    7.9170   -0.4050   -3.4755 H   0  0  0  0  0  0  0  0  0  0  0  0
    8.5199   -0.7035   -1.8312 H   0  0  0  0  0  0  0  0  0  0  0  0
    7.7064   -1.9991   -2.7350 H   0  0  0  0  0  0  0  0  0  0  0  0
    5.5775   -0.6978   -2.6926 H   0  0  0  0  0  0  0  0  0  0  0  0
    6.3698    0.6213   -1.8882 H   0  0  0  0  0  0  0  0  0  0  0  0
    7.5009    1.3160   -0.1434 H   0  0  0  0  0  0  0  0  0  0  0  0
    7.5207    1.0624    1.6089 H   0  0  0  0  0  0  0  0  0  0  0  0
    8.3262   -0.1037    0.5463 H   0  0  0  0  0  0  0  0  0  0  0  0
    4.9083    1.3574   -0.0879 H   0  0  0  0  0  0  0  0  0  0  0  0
    5.0017    1.1833    1.6742 H   0  0  0  0  0  0  0  0  0  0  0  0
    3.8767   -1.2047    0.7363 H   0  0  0  0  0  0  0  0  0  0  0  0
    2.6520    2.2109    0.3321 H   0  0  0  0  0  0  0  0  0  0  0  0
    0.7277    2.6691   -1.2300 H   0  0  0  0  0  0  0  0  0  0  0  0
    4.7852   -5.5905   -4.8168 H   0  0  0  0  0  0  0  0  0  0  0  0
    3.3366   -3.5936   -4.4749 H   0  0  0  0  0  0  0  0  0  0  0  0
    3.7189   -2.1221   -2.5281 H   0  0  0  0  0  0  0  0  0  0  0  0
    9.8479   -3.3895    0.4750 H   0  0  0  0  0  0  0  0  0  0  0  0
    9.8886   -5.6141    1.5437 H   0  0  0  0  0  0  0  0  0  0  0  0
    8.1771   -7.2734    0.9079 H   0  0  0  0  0  0  0  0  0  0  0  0
  1  2  1  0
  1 35  1  0
  1 36  1  0
  1 37  1  0
  2  3  1  0
  2 38  1  0
  2 39  1  0
  3  4  1  0
  3 20  1  0
  4  5  1  1
  4  6  1  0
  4  7  1  0
  6 40  1  0
  6 41  1  0
  6 42  1  0
  7  8  1  0
  7 43  1  0
  7 44  1  0
  8  9  1  0
  8 45  1  0
  9 10  2  0
  9 15  1  0
 10 11  1  0
 10 46  1  0
 11 12  2  0
 11 47  1  0
 12 13  1  0
 12 14  1  0
 14 15  2  0
 14 16  1  0
 16 17  1  0
 16 18  1  0
 16 19  1  0
 20 21  2  0
 20 22  1  0
 22 23  1  0
 22 28  2  0
 23 24  2  0
 23 29  1  0
 24 25  1  0
 24 26  1  0
 26 27  2  0
 26 48  1  0
 27 28  1  0
 27 49  1  0
 28 50  1  0
 29 30  2  0
 29 34  1  0
 30 31  1  0
 31 32  2  0
 31 51  1  0
 32 33  1  0
 32 52  1  0
 33 34  2  0
 33 53  1  0
M  END
>  <group_name>  (1) 
BRI

>  <molecule_index>  (1) 
00649

>  <conformer_index>  (1) 
06

>  <method>  (1) 
openff-1.3.0

>  <basis>  (1) 
smirnoff

>  <program>  (1) 
openmm

>  <initial_energy>  (1) 
-13.498562521681691 kilocalorie / mole

>  <final_energy>  (1) 
-25.093723820405735 kilocalorie / mole

$$$$
