BRI-00739-09
     RDKit          3D

 34 35  0  0  0  0  0  0  0  0999 V2000
    7.9580    1.1777    2.2379 C   0  0  0  0  0  0  0  0  0  0  0  0
    6.8591    0.2886    1.8877 N   0  0  0  0  0  0  0  0  0  0  0  0
    7.0457   -0.9240    1.2742 C   0  0  0  0  0  0  0  0  0  0  0  0
    8.1790   -1.2718    0.9703 O   0  0  0  0  0  0  0  0  0  0  0  0
    5.8938   -1.8488    0.9733 C   0  0  2  0  0  0  0  0  0  0  0  0
    6.2189   -2.6110   -0.2657 C   0  0  0  0  0  0  0  0  0  0  0  0
    5.5129   -2.6203   -1.3671 N   0  0  0  0  0  0  0  0  0  0  0  0
    4.3654   -1.8449   -1.4784 C   0  0  0  0  0  0  0  0  0  0  0  0
    3.6175   -1.9523   -2.7840 C   0  0  0  0  0  0  0  0  0  0  0  0
    3.8897   -1.0670   -0.4339 C   0  0  0  0  0  0  0  0  0  0  0  0
    4.6077   -1.0908    0.8288 C   0  0  0  0  0  0  0  0  0  0  0  0
    4.1700   -0.5014    1.8150 O   0  0  0  0  0  0  0  0  0  0  0  0
    2.6796   -0.2418   -0.5700 C   0  0  0  0  0  0  0  0  0  0  0  0
    1.5904   -0.4037    0.2826 C   0  0  0  0  0  0  0  0  0  0  0  0
    0.4357    0.3917    0.1519 C   0  0  0  0  0  0  0  0  0  0  0  0
    0.3568    1.3450   -0.8164 N   0  0  0  0  0  0  0  0  0  0  0  0
    1.4132    1.5169   -1.6299 C   0  0  0  0  0  0  0  0  0  0  0  0
    2.5767    0.7526   -1.5370 C   0  0  0  0  0  0  0  0  0  0  0  0
   -0.7289    0.1482    1.1192 C   0  0  0  0  0  0  0  0  0  0  0  0
   -1.1214   -1.1582    1.0445 F   0  0  0  0  0  0  0  0  0  0  0  0
   -0.3258    0.3963    2.3999 F   0  0  0  0  0  0  0  0  0  0  0  0
   -1.8163    0.9316    0.8536 F   0  0  0  0  0  0  0  0  0  0  0  0
    8.6943    0.6499    2.8531 H   0  0  0  0  0  0  0  0  0  0  0  0
    7.5835    2.0352    2.8054 H   0  0  0  0  0  0  0  0  0  0  0  0
    8.4505    1.5468    1.3324 H   0  0  0  0  0  0  0  0  0  0  0  0
    5.9076    0.5006    2.1947 H   0  0  0  0  0  0  0  0  0  0  0  0
    5.7958   -2.5484    1.8020 H   0  0  0  0  0  0  0  0  0  0  0  0
    7.1031   -3.2439   -0.2509 H   0  0  0  0  0  0  0  0  0  0  0  0
    3.8221   -1.0796   -3.4092 H   0  0  0  0  0  0  0  0  0  0  0  0
    3.9375   -2.8449   -3.3302 H   0  0  0  0  0  0  0  0  0  0  0  0
    2.5409   -2.0339   -2.6095 H   0  0  0  0  0  0  0  0  0  0  0  0
    1.6311   -1.1520    1.0686 H   0  0  0  0  0  0  0  0  0  0  0  0
    1.3567    2.2875   -2.3931 H   0  0  0  0  0  0  0  0  0  0  0  0
    3.3968    0.9572   -2.2160 H   0  0  0  0  0  0  0  0  0  0  0  0
  1  2  1  0
  1 23  1  0
  1 24  1  0
  1 25  1  0
  2  3  1  0
  2 26  1  0
  3  4  2  0
  3  5  1  0
  5  6  1  0
  5 11  1  0
  5 27  1  1
  6  7  2  0
  6 28  1  0
  7  8  1  0
  8  9  1  0
  8 10  2  0
  9 29  1  0
  9 30  1  0
  9 31  1  0
 10 11  1  0
 10 13  1  0
 11 12  2  0
 13 14  2  0
 13 18  1  0
 14 15  1  0
 14 32  1  0
 15 16  2  0
 15 19  1  0
 16 17  1  0
 17 18  2  0
 17 33  1  0
 18 34  1  0
 19 20  1  0
 19 21  1  0
 19 22  1  0
M  END
>  <group_name>  (1) 
BRI

>  <molecule_index>  (1) 
00739

>  <conformer_index>  (1) 
09

>  <method>  (1) 
openff-1.3.0

>  <basis>  (1) 
smirnoff

>  <program>  (1) 
openmm

>  <initial_energy>  (1) 
-95.07979449479744 kilocalorie / mole

>  <final_energy>  (1) 
-106.36908953572264 kilocalorie / mole

$$$$
