BRI-00647-05
     RDKit          3D

 40 40  0  0  0  0  0  0  0  0999 V2000
   -1.5717    0.3879    6.1458 C   0  0  0  0  0  0  0  0  0  0  0  0
   -0.6836   -0.2097    5.0419 C   0  0  0  0  0  0  0  0  0  0  0  0
    0.0319   -1.4356    5.6188 C   0  0  0  0  0  0  0  0  0  0  0  0
    0.3865    0.7980    4.5872 C   0  0  0  0  0  0  0  0  0  0  0  0
   -1.4499   -0.7286    3.9345 O   0  0  0  0  0  0  0  0  0  0  0  0
   -2.1885    0.1205    3.1776 C   0  0  0  0  0  0  0  0  0  0  0  0
   -2.3706    1.3173    3.3720 O   0  0  0  0  0  0  0  0  0  0  0  0
   -2.7772   -0.4412    2.0786 N   0  0  0  0  0  0  0  0  0  0  0  0
   -3.4807    0.3300    1.0434 C   0  0  1  0  0  0  0  0  0  0  0  0
   -2.5216    0.6428   -0.1197 C   0  0  0  0  0  0  0  0  0  0  0  0
   -1.2719    1.3643    0.3434 C   0  0  0  0  0  0  0  0  0  0  0  0
   -1.3135    2.7172    0.7200 C   0  0  0  0  0  0  0  0  0  0  0  0
   -0.2339    3.4078    1.1342 N   0  0  0  0  0  0  0  0  0  0  0  0
    0.9573    2.7589    1.2152 C   0  0  0  0  0  0  0  0  0  0  0  0
    1.0611    1.4031    0.8460 C   0  0  0  0  0  0  0  0  0  0  0  0
   -0.0510    0.6963    0.4020 C   0  0  0  0  0  0  0  0  0  0  0  0
    2.2177    3.4780    1.7113 C   0  0  0  0  0  0  0  0  0  0  0  0
    2.0008    4.7891    2.0278 F   0  0  0  0  0  0  0  0  0  0  0  0
    2.6985    2.8448    2.8227 F   0  0  0  0  0  0  0  0  0  0  0  0
    3.1852    3.4274    0.7482 F   0  0  0  0  0  0  0  0  0  0  0  0
   -4.7039   -0.4308    0.5123 C   0  0  0  0  0  0  0  0  0  0  0  0
   -5.8736    0.2408    0.4062 O   0  0  0  0  0  0  0  0  0  0  0  0
   -4.5663   -1.6133    0.2238 O   0  0  0  0  0  0  0  0  0  0  0  0
   -2.3943   -0.2942    6.3804 H   0  0  0  0  0  0  0  0  0  0  0  0
   -0.9895    0.5595    7.0562 H   0  0  0  0  0  0  0  0  0  0  0  0
   -1.9929    1.3499    5.8410 H   0  0  0  0  0  0  0  0  0  0  0  0
    0.6704   -1.8958    4.8585 H   0  0  0  0  0  0  0  0  0  0  0  0
    0.6569   -1.1571    6.4730 H   0  0  0  0  0  0  0  0  0  0  0  0
   -0.6984   -2.1795    5.9520 H   0  0  0  0  0  0  0  0  0  0  0  0
   -0.0638    1.7417    4.2664 H   0  0  0  0  0  0  0  0  0  0  0  0
    1.0738    1.0249    5.4078 H   0  0  0  0  0  0  0  0  0  0  0  0
    0.9632    0.3873    3.7535 H   0  0  0  0  0  0  0  0  0  0  0  0
   -2.7209   -1.4526    2.0004 H   0  0  0  0  0  0  0  0  0  0  0  0
   -3.8511    1.2700    1.4670 H   0  0  0  0  0  0  0  0  0  0  0  0
   -3.0416    1.2579   -0.8617 H   0  0  0  0  0  0  0  0  0  0  0  0
   -2.2428   -0.2917   -0.6186 H   0  0  0  0  0  0  0  0  0  0  0  0
   -2.2640    3.2409    0.6758 H   0  0  0  0  0  0  0  0  0  0  0  0
    2.0240    0.9054    0.9139 H   0  0  0  0  0  0  0  0  0  0  0  0
    0.0346   -0.3515    0.1237 H   0  0  0  0  0  0  0  0  0  0  0  0
   -6.5201   -0.4092    0.0904 H   0  0  0  0  0  0  0  0  0  0  0  0
  1  2  1  0
  1 24  1  0
  1 25  1  0
  1 26  1  0
  2  3  1  0
  2  4  1  0
  2  5  1  0
  3 27  1  0
  3 28  1  0
  3 29  1  0
  4 30  1  0
  4 31  1  0
  4 32  1  0
  5  6  1  0
  6  7  2  0
  6  8  1  0
  8  9  1  0
  8 33  1  0
  9 10  1  0
  9 21  1  0
  9 34  1  1
 10 11  1  0
 10 35  1  0
 10 36  1  0
 11 12  2  0
 11 16  1  0
 12 13  1  0
 12 37  1  0
 13 14  2  0
 14 15  1  0
 14 17  1  0
 15 16  2  0
 15 38  1  0
 16 39  1  0
 17 18  1  0
 17 19  1  0
 17 20  1  0
 21 22  1  0
 21 23  2  0
 22 40  1  0
M  END
>  <group_name>  (1) 
BRI

>  <molecule_index>  (1) 
00647

>  <conformer_index>  (1) 
05

>  <method>  (1) 
openff-1.3.0

>  <basis>  (1) 
smirnoff

>  <program>  (1) 
openmm

>  <initial_energy>  (1) 
19.165105539257517 kilocalorie / mole

>  <final_energy>  (1) 
8.427031852051057 kilocalorie / mole

$$$$
