BRI-00649-01
     RDKit          3D

 53 55  0  0  0  0  0  0  0  0999 V2000
    8.7074    1.0582   -2.0287 C   0  0  0  0  0  0  0  0  0  0  0  0
    8.3478    0.1501   -0.8539 C   0  0  0  0  0  0  0  0  0  0  0  0
    7.2547   -0.7669   -1.2115 N   0  0  0  0  0  0  0  0  0  0  0  0
    5.8833   -0.5603   -0.7035 C   0  0  1  0  0  0  0  0  0  0  0  0
    5.3402   -1.5059   -0.7725 H   0  0  0  0  0  0  0  0  0  0  0  0
    5.8492   -0.1906    0.7886 C   0  0  0  0  0  0  0  0  0  0  0  0
    5.1361    0.4739   -1.5674 C   0  0  0  0  0  0  0  0  0  0  0  0
    3.7329    0.6604   -1.1582 N   0  0  0  0  0  0  0  0  0  0  0  0
    2.7923   -0.3353   -1.1012 C   0  0  0  0  0  0  0  0  0  0  0  0
    2.8729   -1.5144   -1.8366 C   0  0  0  0  0  0  0  0  0  0  0  0
    1.8877   -2.4840   -1.6908 C   0  0  0  0  0  0  0  0  0  0  0  0
    0.8417   -2.2258   -0.8101 C   0  0  0  0  0  0  0  0  0  0  0  0
   -0.1299   -3.1634   -0.6575 F   0  0  0  0  0  0  0  0  0  0  0  0
    0.8133   -0.9991   -0.0991 C   0  0  0  0  0  0  0  0  0  0  0  0
    1.8002   -0.0674   -0.2601 N   0  0  0  0  0  0  0  0  0  0  0  0
   -0.3494   -0.7325    0.8662 C   0  0  0  0  0  0  0  0  0  0  0  0
   -1.5392   -0.7508    0.1951 F   0  0  0  0  0  0  0  0  0  0  0  0
   -0.3814   -1.6839    1.8462 F   0  0  0  0  0  0  0  0  0  0  0  0
   -0.2481    0.4833    1.4836 F   0  0  0  0  0  0  0  0  0  0  0  0
    7.5522   -1.8937   -1.9790 C   0  0  0  0  0  0  0  0  0  0  0  0
    8.7207   -2.1439   -2.2648 O   0  0  0  0  0  0  0  0  0  0  0  0
    6.5061   -2.6634   -2.6755 C   0  0  0  0  0  0  0  0  0  0  0  0
    6.0012   -3.8895   -2.1672 C   0  0  0  0  0  0  0  0  0  0  0  0
    5.0181   -4.5856   -2.8977 C   0  0  0  0  0  0  0  0  0  0  0  0
    4.4680   -5.7357   -2.4296 F   0  0  0  0  0  0  0  0  0  0  0  0
    4.5655   -4.0822   -4.1212 C   0  0  0  0  0  0  0  0  0  0  0  0
    5.0794   -2.8922   -4.6370 C   0  0  0  0  0  0  0  0  0  0  0  0
    6.0438   -2.1888   -3.9151 C   0  0  0  0  0  0  0  0  0  0  0  0
    6.5000   -4.4515   -0.9081 C   0  0  0  0  0  0  0  0  0  0  0  0
    6.9804   -5.7059   -0.9207 N   0  0  0  0  0  0  0  0  0  0  0  0
    7.4484   -6.2021    0.2219 C   0  0  0  0  0  0  0  0  0  0  0  0
    7.4319   -5.4590    1.3802 C   0  0  0  0  0  0  0  0  0  0  0  0
    6.9151   -4.1851    1.3274 C   0  0  0  0  0  0  0  0  0  0  0  0
    6.4432   -3.6777    0.1900 N   0  0  0  0  0  0  0  0  0  0  0  0
    9.5236    1.7276   -1.7419 H   0  0  0  0  0  0  0  0  0  0  0  0
    7.8473    1.6647   -2.3246 H   0  0  0  0  0  0  0  0  0  0  0  0
    9.0349    0.4654   -2.8881 H   0  0  0  0  0  0  0  0  0  0  0  0
    8.0901    0.7766    0.0020 H   0  0  0  0  0  0  0  0  0  0  0  0
    9.2306   -0.4242   -0.5520 H   0  0  0  0  0  0  0  0  0  0  0  0
    6.4726   -0.8832    1.3622 H   0  0  0  0  0  0  0  0  0  0  0  0
    6.1956    0.8325    0.9574 H   0  0  0  0  0  0  0  0  0  0  0  0
    4.8272   -0.2644    1.1726 H   0  0  0  0  0  0  0  0  0  0  0  0
    5.6563    1.4346   -1.4971 H   0  0  0  0  0  0  0  0  0  0  0  0
    5.1739    0.1741   -2.6192 H   0  0  0  0  0  0  0  0  0  0  0  0
    3.5034    1.4106   -0.5100 H   0  0  0  0  0  0  0  0  0  0  0  0
    3.6980   -1.6699   -2.5163 H   0  0  0  0  0  0  0  0  0  0  0  0
    1.9237   -3.4202   -2.2423 H   0  0  0  0  0  0  0  0  0  0  0  0
    3.8137   -4.6381   -4.6737 H   0  0  0  0  0  0  0  0  0  0  0  0
    4.7362   -2.5193   -5.5991 H   0  0  0  0  0  0  0  0  0  0  0  0
    6.4600   -1.2715   -4.3253 H   0  0  0  0  0  0  0  0  0  0  0  0
    7.8488   -7.2116    0.2383 H   0  0  0  0  0  0  0  0  0  0  0  0
    7.8150   -5.8669    2.3071 H   0  0  0  0  0  0  0  0  0  0  0  0
    6.8892   -3.5803    2.2292 H   0  0  0  0  0  0  0  0  0  0  0  0
  1  2  1  0
  1 35  1  0
  1 36  1  0
  1 37  1  0
  2  3  1  0
  2 38  1  0
  2 39  1  0
  3  4  1  0
  3 20  1  0
  4  5  1  1
  4  6  1  0
  4  7  1  0
  6 40  1  0
  6 41  1  0
  6 42  1  0
  7  8  1  0
  7 43  1  0
  7 44  1  0
  8  9  1  0
  8 45  1  0
  9 10  2  0
  9 15  1  0
 10 11  1  0
 10 46  1  0
 11 12  2  0
 11 47  1  0
 12 13  1  0
 12 14  1  0
 14 15  2  0
 14 16  1  0
 16 17  1  0
 16 18  1  0
 16 19  1  0
 20 21  2  0
 20 22  1  0
 22 23  1  0
 22 28  2  0
 23 24  2  0
 23 29  1  0
 24 25  1  0
 24 26  1  0
 26 27  2  0
 26 48  1  0
 27 28  1  0
 27 49  1  0
 28 50  1  0
 29 30  2  0
 29 34  1  0
 30 31  1  0
 31 32  2  0
 31 51  1  0
 32 33  1  0
 32 52  1  0
 33 34  2  0
 33 53  1  0
M  END
>  <group_name>  (1) 
BRI

>  <molecule_index>  (1) 
00649

>  <conformer_index>  (1) 
01

>  <method>  (1) 
openff-1.3.0

>  <basis>  (1) 
smirnoff

>  <program>  (1) 
openmm

>  <initial_energy>  (1) 
-10.394106720635971 kilocalorie / mole

>  <final_energy>  (1) 
-21.194024155338543 kilocalorie / mole

$$$$
