BRI-00649-07
     RDKit          3D

 53 55  0  0  0  0  0  0  0  0999 V2000
    3.4273   -3.9669   -0.6297 C   0  0  0  0  0  0  0  0  0  0  0  0
    3.6321   -3.0478   -1.8362 C   0  0  0  0  0  0  0  0  0  0  0  0
    5.0392   -2.6488   -1.9785 N   0  0  0  0  0  0  0  0  0  0  0  0
    5.4798   -1.2826   -1.6195 C   0  0  1  0  0  0  0  0  0  0  0  0
    6.5649   -1.2177   -1.7330 H   0  0  0  0  0  0  0  0  0  0  0  0
    4.8937   -0.2608   -2.6025 C   0  0  0  0  0  0  0  0  0  0  0  0
    5.2493   -0.8946   -0.1394 C   0  0  0  0  0  0  0  0  0  0  0  0
    3.8363   -0.7476    0.2516 N   0  0  0  0  0  0  0  0  0  0  0  0
    3.0946    0.3923    0.1016 C   0  0  0  0  0  0  0  0  0  0  0  0
    3.6273    1.6790    0.1424 C   0  0  0  0  0  0  0  0  0  0  0  0
    2.7869    2.7723   -0.0400 C   0  0  0  0  0  0  0  0  0  0  0  0
    1.4336    2.5309   -0.2576 C   0  0  0  0  0  0  0  0  0  0  0  0
    0.6024    3.5904   -0.4387 F   0  0  0  0  0  0  0  0  0  0  0  0
    0.9569    1.1960   -0.2828 C   0  0  0  0  0  0  0  0  0  0  0  0
    1.8060    0.1415   -0.1005 N   0  0  0  0  0  0  0  0  0  0  0  0
   -0.5381    0.9495   -0.5256 C   0  0  0  0  0  0  0  0  0  0  0  0
   -0.9122    1.4610   -1.7360 F   0  0  0  0  0  0  0  0  0  0  0  0
   -1.2837    1.5426    0.4533 F   0  0  0  0  0  0  0  0  0  0  0  0
   -0.8538   -0.3808   -0.5315 F   0  0  0  0  0  0  0  0  0  0  0  0
    5.9380   -3.5661   -2.5262 C   0  0  0  0  0  0  0  0  0  0  0  0
    5.5477   -4.6837   -2.8568 O   0  0  0  0  0  0  0  0  0  0  0  0
    7.3392   -3.2236   -2.8242 C   0  0  0  0  0  0  0  0  0  0  0  0
    8.3954   -3.6057   -1.9579 C   0  0  0  0  0  0  0  0  0  0  0  0
    9.7210   -3.2756   -2.2960 C   0  0  0  0  0  0  0  0  0  0  0  0
   10.7597   -3.5915   -1.4797 F   0  0  0  0  0  0  0  0  0  0  0  0
    9.9879   -2.5807   -3.4799 C   0  0  0  0  0  0  0  0  0  0  0  0
    8.9521   -2.2100   -4.3391 C   0  0  0  0  0  0  0  0  0  0  0  0
    7.6347   -2.5318   -4.0108 C   0  0  0  0  0  0  0  0  0  0  0  0
    8.1211   -4.3408   -0.7214 C   0  0  0  0  0  0  0  0  0  0  0  0
    8.7311   -5.5231   -0.5360 N   0  0  0  0  0  0  0  0  0  0  0  0
    8.4419   -6.2016    0.5712 C   0  0  0  0  0  0  0  0  0  0  0  0
    7.5594   -5.7024    1.5022 C   0  0  0  0  0  0  0  0  0  0  0  0
    6.9859   -4.4753    1.2615 C   0  0  0  0  0  0  0  0  0  0  0  0
    7.2695   -3.7831    0.1596 N   0  0  0  0  0  0  0  0  0  0  0  0
    3.9850   -4.8993   -0.7578 H   0  0  0  0  0  0  0  0  0  0  0  0
    3.7676   -3.4876    0.2916 H   0  0  0  0  0  0  0  0  0  0  0  0
    2.3662   -4.2124   -0.5280 H   0  0  0  0  0  0  0  0  0  0  0  0
    3.3006   -3.5646   -2.7434 H   0  0  0  0  0  0  0  0  0  0  0  0
    2.9859   -2.1714   -1.7397 H   0  0  0  0  0  0  0  0  0  0  0  0
    3.8007   -0.2526   -2.5673 H   0  0  0  0  0  0  0  0  0  0  0  0
    5.2008   -0.5039   -3.6239 H   0  0  0  0  0  0  0  0  0  0  0  0
    5.2557    0.7436   -2.3644 H   0  0  0  0  0  0  0  0  0  0  0  0
    5.7097   -1.6578    0.4958 H   0  0  0  0  0  0  0  0  0  0  0  0
    5.7977    0.0282    0.0670 H   0  0  0  0  0  0  0  0  0  0  0  0
    3.2415   -1.5664    0.1512 H   0  0  0  0  0  0  0  0  0  0  0  0
    4.6821    1.8274    0.3292 H   0  0  0  0  0  0  0  0  0  0  0  0
    3.1633    3.7918   -0.0115 H   0  0  0  0  0  0  0  0  0  0  0  0
   11.0166   -2.3354   -3.7253 H   0  0  0  0  0  0  0  0  0  0  0  0
    9.1711   -1.6803   -5.2626 H   0  0  0  0  0  0  0  0  0  0  0  0
    6.8284   -2.2598   -4.6876 H   0  0  0  0  0  0  0  0  0  0  0  0
    8.9117   -7.1660    0.7411 H   0  0  0  0  0  0  0  0  0  0  0  0
    7.3245   -6.2611    2.3994 H   0  0  0  0  0  0  0  0  0  0  0  0
    6.2896   -4.0596    1.9840 H   0  0  0  0  0  0  0  0  0  0  0  0
  1  2  1  0
  1 35  1  0
  1 36  1  0
  1 37  1  0
  2  3  1  0
  2 38  1  0
  2 39  1  0
  3  4  1  0
  3 20  1  0
  4  5  1  1
  4  6  1  0
  4  7  1  0
  6 40  1  0
  6 41  1  0
  6 42  1  0
  7  8  1  0
  7 43  1  0
  7 44  1  0
  8  9  1  0
  8 45  1  0
  9 10  2  0
  9 15  1  0
 10 11  1  0
 10 46  1  0
 11 12  2  0
 11 47  1  0
 12 13  1  0
 12 14  1  0
 14 15  2  0
 14 16  1  0
 16 17  1  0
 16 18  1  0
 16 19  1  0
 20 21  2  0
 20 22  1  0
 22 23  1  0
 22 28  2  0
 23 24  2  0
 23 29  1  0
 24 25  1  0
 24 26  1  0
 26 27  2  0
 26 48  1  0
 27 28  1  0
 27 49  1  0
 28 50  1  0
 29 30  2  0
 29 34  1  0
 30 31  1  0
 31 32  2  0
 31 51  1  0
 32 33  1  0
 32 52  1  0
 33 34  2  0
 33 53  1  0
M  END
>  <group_name>  (1) 
BRI

>  <molecule_index>  (1) 
00649

>  <conformer_index>  (1) 
07

>  <method>  (1) 
openff-1.3.0

>  <basis>  (1) 
smirnoff

>  <program>  (1) 
openmm

>  <initial_energy>  (1) 
-11.117560417592902 kilocalorie / mole

>  <final_energy>  (1) 
-19.917944117051082 kilocalorie / mole

$$$$
