BRI-01456-05
     RDKit          3D

 42 42  0  0  0  0  0  0  0  0999 V2000
   -1.7711    6.0712    2.6452 C   0  0  0  0  0  0  0  0  0  0  0  0
   -0.8745    5.4322    1.5750 C   0  0  0  0  0  0  0  0  0  0  0  0
    0.5410    6.0068    1.7050 C   0  0  0  0  0  0  0  0  0  0  0  0
   -1.4271    5.6836    0.1486 C   0  0  0  0  0  0  0  0  0  0  0  0
   -2.1819    4.4961   -0.4943 C   0  0  2  0  0  0  0  0  0  0  0  0
   -3.4445    4.1110    0.3163 C   0  0  0  0  0  0  0  0  0  0  0  0
   -4.3337    3.0563   -0.3775 C   0  0  2  0  0  0  0  0  0  0  0  0
   -4.9880    3.5317   -1.6640 C   0  0  0  0  0  0  0  0  0  0  0  0
   -5.4032    2.6395   -2.5993 N   0  0  0  0  0  0  0  0  0  0  0  0
   -4.9842    4.6997   -2.0223 O   0  0  0  0  0  0  0  0  0  0  0  0
   -5.6299    2.5028    0.7768 S   0  0  0  0  0  0  0  0  0  0  0  0
   -6.4081    1.3457   -0.0768 O   0  0  0  0  0  0  0  0  0  0  0  0
   -6.6720    3.5321    0.6544 O   0  0  0  0  0  0  0  0  0  0  0  0
   -1.2339    3.3324   -0.7459 C   0  0  0  0  0  0  0  0  0  0  0  0
   -1.2222    2.2768    0.0971 N   0  0  0  0  0  0  0  0  0  0  0  0
   -0.3843    1.2339   -0.1480 C   0  0  0  0  0  0  0  0  0  0  0  0
    0.4561    1.2412   -1.2778 C   0  0  0  0  0  0  0  0  0  0  0  0
    0.4433    2.3111   -2.1635 C   0  0  0  0  0  0  0  0  0  0  0  0
   -0.4202    3.3624   -1.8865 C   0  0  0  0  0  0  0  0  0  0  0  0
   -0.3464    0.0201    0.7892 C   0  0  0  0  0  0  0  0  0  0  0  0
   -0.5711   -1.1224    0.0749 F   0  0  0  0  0  0  0  0  0  0  0  0
   -1.2854    0.0868    1.7804 F   0  0  0  0  0  0  0  0  0  0  0  0
    0.8862   -0.0765    1.3687 F   0  0  0  0  0  0  0  0  0  0  0  0
   -1.8189    7.1567    2.5120 H   0  0  0  0  0  0  0  0  0  0  0  0
   -1.3761    5.8612    3.6441 H   0  0  0  0  0  0  0  0  0  0  0  0
   -2.7873    5.6716    2.5944 H   0  0  0  0  0  0  0  0  0  0  0  0
   -0.8128    4.3581    1.7725 H   0  0  0  0  0  0  0  0  0  0  0  0
    0.5410    7.0839    1.5094 H   0  0  0  0  0  0  0  0  0  0  0  0
    0.9310    5.8342    2.7131 H   0  0  0  0  0  0  0  0  0  0  0  0
    1.2151    5.5193    0.9935 H   0  0  0  0  0  0  0  0  0  0  0  0
   -0.6028    5.9535   -0.5199 H   0  0  0  0  0  0  0  0  0  0  0  0
   -2.0896    6.5559    0.1634 H   0  0  0  0  0  0  0  0  0  0  0  0
   -2.5194    4.8482   -1.4732 H   0  0  0  0  0  0  0  0  0  0  0  0
   -4.0451    5.0084    0.5039 H   0  0  0  0  0  0  0  0  0  0  0  0
   -3.1370    3.7182    1.2908 H   0  0  0  0  0  0  0  0  0  0  0  0
   -3.7293    2.1819   -0.6184 H   0  0  0  0  0  0  0  0  0  0  0  0
   -5.6674    1.7223   -2.2502 H   0  0  0  0  0  0  0  0  0  0  0  0
   -5.9302    3.0644   -3.3553 H   0  0  0  0  0  0  0  0  0  0  0  0
   -7.3389    1.6293   -0.0657 H   0  0  0  0  0  0  0  0  0  0  0  0
    1.1176    0.3984   -1.4575 H   0  0  0  0  0  0  0  0  0  0  0  0
    1.0844    2.3245   -3.0422 H   0  0  0  0  0  0  0  0  0  0  0  0
   -0.4662    4.2166   -2.5544 H   0  0  0  0  0  0  0  0  0  0  0  0
  1  2  1  0
  1 24  1  0
  1 25  1  0
  1 26  1  0
  2  3  1  0
  2  4  1  0
  2 27  1  0
  3 28  1  0
  3 29  1  0
  3 30  1  0
  4  5  1  0
  4 31  1  0
  4 32  1  0
  5  6  1  0
  5 14  1  0
  5 33  1  6
  6  7  1  0
  6 34  1  0
  6 35  1  0
  7  8  1  0
  7 11  1  0
  7 36  1  6
  8  9  1  0
  8 10  2  0
  9 37  1  0
  9 38  1  0
 11 12  1  6
 11 13  2  0
 12 39  1  0
 14 15  2  0
 14 19  1  0
 15 16  1  0
 16 17  2  0
 16 20  1  0
 17 18  1  0
 17 40  1  0
 18 19  2  0
 18 41  1  0
 19 42  1  0
 20 21  1  0
 20 22  1  0
 20 23  1  0
M  END
>  <group_name>  (1) 
BRI

>  <molecule_index>  (1) 
01456

>  <conformer_index>  (1) 
05

>  <method>  (1) 
openff-1.3.0

>  <basis>  (1) 
smirnoff

>  <program>  (1) 
openmm

>  <initial_energy>  (1) 
-23.631087064855564 kilocalorie / mole

>  <final_energy>  (1) 
-42.12672015755264 kilocalorie / mole

$$$$
