BRI-01456-00
     RDKit          3D

 42 42  0  0  0  0  0  0  0  0999 V2000
   -0.6881    3.0585    2.8644 C   0  0  0  0  0  0  0  0  0  0  0  0
   -2.1637    3.4574    3.0118 C   0  0  0  0  0  0  0  0  0  0  0  0
   -2.6716    2.9576    4.3706 C   0  0  0  0  0  0  0  0  0  0  0  0
   -3.0735    2.8934    1.8961 C   0  0  0  0  0  0  0  0  0  0  0  0
   -2.9029    3.5712    0.5139 C   0  0  2  0  0  0  0  0  0  0  0  0
   -4.0844    3.1967   -0.4076 C   0  0  0  0  0  0  0  0  0  0  0  0
   -4.0329    3.9159   -1.7738 C   0  0  2  0  0  0  0  0  0  0  0  0
   -4.1310    5.4193   -1.6282 C   0  0  0  0  0  0  0  0  0  0  0  0
   -3.0367    6.2159   -1.7326 N   0  0  0  0  0  0  0  0  0  0  0  0
   -5.1835    5.9643   -1.3350 O   0  0  0  0  0  0  0  0  0  0  0  0
   -5.4273    3.4585   -2.8466 S   0  0  0  0  0  0  0  0  0  0  0  0
   -5.4071    1.8266   -2.7767 O   0  0  0  0  0  0  0  0  0  0  0  0
   -4.8047    3.5411   -4.1773 O   0  0  0  0  0  0  0  0  0  0  0  0
   -1.5918    3.2558   -0.1851 C   0  0  0  0  0  0  0  0  0  0  0  0
   -0.8798    4.2960   -0.6672 N   0  0  0  0  0  0  0  0  0  0  0  0
    0.3034    4.0575   -1.2980 C   0  0  0  0  0  0  0  0  0  0  0  0
    0.7729    2.7406   -1.4656 C   0  0  0  0  0  0  0  0  0  0  0  0
    0.0400    1.6603   -0.9915 C   0  0  0  0  0  0  0  0  0  0  0  0
   -1.1592    1.9307   -0.3468 C   0  0  0  0  0  0  0  0  0  0  0  0
    1.1354    5.2168   -1.8613 C   0  0  0  0  0  0  0  0  0  0  0  0
    0.4424    6.3952   -1.8621 F   0  0  0  0  0  0  0  0  0  0  0  0
    1.5048    4.9486   -3.1484 F   0  0  0  0  0  0  0  0  0  0  0  0
    2.2667    5.3755   -1.1146 F   0  0  0  0  0  0  0  0  0  0  0  0
   -0.1285    3.3265    3.7661 H   0  0  0  0  0  0  0  0  0  0  0  0
   -0.5912    1.9801    2.7047 H   0  0  0  0  0  0  0  0  0  0  0  0
   -0.2210    3.5895    2.0317 H   0  0  0  0  0  0  0  0  0  0  0  0
   -2.2309    4.5508    3.0099 H   0  0  0  0  0  0  0  0  0  0  0  0
   -2.6247    1.8651    4.4227 H   0  0  0  0  0  0  0  0  0  0  0  0
   -3.7074    3.2723    4.5324 H   0  0  0  0  0  0  0  0  0  0  0  0
   -2.0652    3.3726    5.1819 H   0  0  0  0  0  0  0  0  0  0  0  0
   -4.1108    3.0499    2.2117 H   0  0  0  0  0  0  0  0  0  0  0  0
   -2.9394    1.8104    1.8180 H   0  0  0  0  0  0  0  0  0  0  0  0
   -2.9433    4.6511    0.6912 H   0  0  0  0  0  0  0  0  0  0  0  0
   -5.0293    3.4502    0.0864 H   0  0  0  0  0  0  0  0  0  0  0  0
   -4.0817    2.1134   -0.5660 H   0  0  0  0  0  0  0  0  0  0  0  0
   -3.1135    3.6681   -2.3053 H   0  0  0  0  0  0  0  0  0  0  0  0
   -2.1243    5.7783   -1.6074 H   0  0  0  0  0  0  0  0  0  0  0  0
   -3.1799    7.1733   -1.4288 H   0  0  0  0  0  0  0  0  0  0  0  0
   -5.1724    1.5579   -3.6807 H   0  0  0  0  0  0  0  0  0  0  0  0
    1.7173    2.5694   -1.9751 H   0  0  0  0  0  0  0  0  0  0  0  0
    0.3924    0.6393   -1.1227 H   0  0  0  0  0  0  0  0  0  0  0  0
   -1.7599    1.1092    0.0272 H   0  0  0  0  0  0  0  0  0  0  0  0
  1  2  1  0
  1 24  1  0
  1 25  1  0
  1 26  1  0
  2  3  1  0
  2  4  1  0
  2 27  1  0
  3 28  1  0
  3 29  1  0
  3 30  1  0
  4  5  1  0
  4 31  1  0
  4 32  1  0
  5  6  1  0
  5 14  1  0
  5 33  1  1
  6  7  1  0
  6 34  1  0
  6 35  1  0
  7  8  1  0
  7 11  1  0
  7 36  1  6
  8  9  1  0
  8 10  2  0
  9 37  1  0
  9 38  1  0
 11 12  1  1
 11 13  2  0
 12 39  1  0
 14 15  2  0
 14 19  1  0
 15 16  1  0
 16 17  2  0
 16 20  1  0
 17 18  1  0
 17 40  1  0
 18 19  2  0
 18 41  1  0
 19 42  1  0
 20 21  1  0
 20 22  1  0
 20 23  1  0
M  END
>  <group_name>  (1) 
BRI

>  <molecule_index>  (1) 
01456

>  <conformer_index>  (1) 
00

>  <method>  (1) 
openff-1.3.0

>  <basis>  (1) 
smirnoff

>  <program>  (1) 
openmm

>  <initial_energy>  (1) 
-23.17119740963114 kilocalorie / mole

>  <final_energy>  (1) 
-51.702380592287504 kilocalorie / mole

$$$$
