BRI-00739-08
     RDKit          3D

 34 35  0  0  0  0  0  0  0  0999 V2000
    8.5935    0.9684    1.5570 C   0  0  0  0  0  0  0  0  0  0  0  0
    7.3920    0.1584    1.4127 N   0  0  0  0  0  0  0  0  0  0  0  0
    7.3470   -0.9835    0.6543 C   0  0  0  0  0  0  0  0  0  0  0  0
    8.3466   -1.3288    0.0385 O   0  0  0  0  0  0  0  0  0  0  0  0
    6.1060   -1.8373    0.5734 C   0  0  2  0  0  0  0  0  0  0  0  0
    6.0808   -2.4961   -0.7643 C   0  0  0  0  0  0  0  0  0  0  0  0
    5.1194   -2.4045   -1.6467 N   0  0  0  0  0  0  0  0  0  0  0  0
    3.9995   -1.6229   -1.3942 C   0  0  0  0  0  0  0  0  0  0  0  0
    3.0056   -1.5029   -2.5230 C   0  0  0  0  0  0  0  0  0  0  0  0
    3.8261   -0.9368   -0.2022 C   0  0  0  0  0  0  0  0  0  0  0  0
    4.8611   -1.0331    0.8123 C   0  0  0  0  0  0  0  0  0  0  0  0
    4.7268   -0.4782    1.9015 O   0  0  0  0  0  0  0  0  0  0  0  0
    2.6319   -0.1187    0.0524 C   0  0  0  0  0  0  0  0  0  0  0  0
    1.3508   -0.6649    0.0382 C   0  0  0  0  0  0  0  0  0  0  0  0
    0.2157    0.1329    0.2819 C   0  0  0  0  0  0  0  0  0  0  0  0
    0.3448    1.4614    0.5454 N   0  0  0  0  0  0  0  0  0  0  0  0
    1.5827    1.9870    0.5813 C   0  0  0  0  0  0  0  0  0  0  0  0
    2.7335    1.2367    0.3408 C   0  0  0  0  0  0  0  0  0  0  0  0
   -1.1633   -0.5349    0.2345 C   0  0  0  0  0  0  0  0  0  0  0  0
   -2.1915    0.3400    0.4425 F   0  0  0  0  0  0  0  0  0  0  0  0
   -1.3427   -1.1202   -0.9869 F   0  0  0  0  0  0  0  0  0  0  0  0
   -1.2329   -1.5140    1.1838 F   0  0  0  0  0  0  0  0  0  0  0  0
    9.4252    0.3554    1.9200 H   0  0  0  0  0  0  0  0  0  0  0  0
    8.8713    1.4098    0.5943 H   0  0  0  0  0  0  0  0  0  0  0  0
    8.4203    1.7768    2.2740 H   0  0  0  0  0  0  0  0  0  0  0  0
    6.5617    0.3618    1.9727 H   0  0  0  0  0  0  0  0  0  0  0  0
    6.1743   -2.6059    1.3418 H   0  0  0  0  0  0  0  0  0  0  0  0
    6.9225   -3.1309   -1.0310 H   0  0  0  0  0  0  0  0  0  0  0  0
    3.4630   -1.8223   -3.4644 H   0  0  0  0  0  0  0  0  0  0  0  0
    2.1383   -2.1402   -2.3333 H   0  0  0  0  0  0  0  0  0  0  0  0
    2.6785   -0.4663   -2.6442 H   0  0  0  0  0  0  0  0  0  0  0  0
    1.2183   -1.7255   -0.1502 H   0  0  0  0  0  0  0  0  0  0  0  0
    1.6887    3.0446    0.8040 H   0  0  0  0  0  0  0  0  0  0  0  0
    3.7024    1.7216    0.3873 H   0  0  0  0  0  0  0  0  0  0  0  0
  1  2  1  0
  1 23  1  0
  1 24  1  0
  1 25  1  0
  2  3  1  0
  2 26  1  0
  3  4  2  0
  3  5  1  0
  5  6  1  0
  5 11  1  0
  5 27  1  1
  6  7  2  0
  6 28  1  0
  7  8  1  0
  8  9  1  0
  8 10  2  0
  9 29  1  0
  9 30  1  0
  9 31  1  0
 10 11  1  0
 10 13  1  0
 11 12  2  0
 13 14  2  0
 13 18  1  0
 14 15  1  0
 14 32  1  0
 15 16  2  0
 15 19  1  0
 16 17  1  0
 17 18  2  0
 17 33  1  0
 18 34  1  0
 19 20  1  0
 19 21  1  0
 19 22  1  0
M  END
>  <group_name>  (1) 
BRI

>  <molecule_index>  (1) 
00739

>  <conformer_index>  (1) 
08

>  <method>  (1) 
openff-1.3.0

>  <basis>  (1) 
smirnoff

>  <program>  (1) 
openmm

>  <initial_energy>  (1) 
-94.66668160764819 kilocalorie / mole

>  <final_energy>  (1) 
-106.0264914015417 kilocalorie / mole

$$$$
