BRI-00638-08
     RDKit          3D

 45 45  0  0  0  0  0  0  0  0999 V2000
    1.4051    6.6055   -1.1724 C   0  0  0  0  0  0  0  0  0  0  0  0
    0.6865    5.7226   -0.1633 C   0  0  0  0  0  0  0  0  0  0  0  0
   -0.3957    5.0515   -0.8223 O   0  0  0  0  0  0  0  0  0  0  0  0
   -1.1603    4.2265    0.0701 C   0  0  0  0  0  0  0  0  0  0  0  0
   -1.9892    3.2371   -0.7568 C   0  0  0  0  0  0  0  0  0  0  0  0
   -2.9275    2.4309    0.0439 N   0  0  0  0  0  0  0  0  0  0  0  0
   -2.2855    1.0939    0.8947 S   0  0  0  0  0  0  0  0  0  0  0  0
   -0.8791    1.3832    1.1973 O   0  0  0  0  0  0  0  0  0  0  0  0
   -3.1175    1.0053    2.0996 O   0  0  0  0  0  0  0  0  0  0  0  0
   -2.5590   -0.3123   -0.2343 C   0  0  0  0  0  0  0  0  0  0  0  0
   -4.0211   -0.2643   -0.7602 C   0  0  0  0  0  0  0  0  0  0  0  0
   -1.6388   -0.2757   -1.4750 C   0  0  0  0  0  0  0  0  0  0  0  0
   -2.3572   -1.5588    0.6452 C   0  0  0  0  0  0  0  0  0  0  0  0
   -3.1841   -2.4611    0.5869 O   0  0  0  0  0  0  0  0  0  0  0  0
   -1.5547   -1.6952    1.7419 N   0  0  0  0  0  0  0  0  0  0  0  0
   -0.2046   -1.4397    1.7970 C   0  0  0  0  0  0  0  0  0  0  0  0
    0.4019   -1.3858    3.0510 C   0  0  0  0  0  0  0  0  0  0  0  0
    1.7662   -1.1551    3.1558 C   0  0  0  0  0  0  0  0  0  0  0  0
    2.4764   -0.9969    1.9731 C   0  0  0  0  0  0  0  0  0  0  0  0
    1.8240   -1.0814    0.7268 C   0  0  0  0  0  0  0  0  0  0  0  0
    0.4875   -1.3241    0.6603 N   0  0  0  0  0  0  0  0  0  0  0  0
    2.6553   -0.9034   -0.5507 C   0  0  0  0  0  0  0  0  0  0  0  0
    3.6844   -1.8019   -0.5633 F   0  0  0  0  0  0  0  0  0  0  0  0
    1.9256   -1.0842   -1.6925 F   0  0  0  0  0  0  0  0  0  0  0  0
    3.1912    0.3524   -0.5838 F   0  0  0  0  0  0  0  0  0  0  0  0
    0.7141    7.3482   -1.5819 H   0  0  0  0  0  0  0  0  0  0  0  0
    1.7995    5.9959   -1.9910 H   0  0  0  0  0  0  0  0  0  0  0  0
    2.2367    7.1262   -0.6889 H   0  0  0  0  0  0  0  0  0  0  0  0
    1.3901    4.9909    0.2477 H   0  0  0  0  0  0  0  0  0  0  0  0
    0.3065    6.3382    0.6586 H   0  0  0  0  0  0  0  0  0  0  0  0
   -1.8310    4.8566    0.6620 H   0  0  0  0  0  0  0  0  0  0  0  0
   -0.4967    3.6949    0.7573 H   0  0  0  0  0  0  0  0  0  0  0  0
   -2.5676    3.8201   -1.4813 H   0  0  0  0  0  0  0  0  0  0  0  0
   -1.3147    2.5912   -1.3281 H   0  0  0  0  0  0  0  0  0  0  0  0
   -3.3817    2.9577    0.7808 H   0  0  0  0  0  0  0  0  0  0  0  0
   -4.7307   -0.2597    0.0745 H   0  0  0  0  0  0  0  0  0  0  0  0
   -4.2021    0.6288   -1.3664 H   0  0  0  0  0  0  0  0  0  0  0  0
   -4.2361   -1.1364   -1.3870 H   0  0  0  0  0  0  0  0  0  0  0  0
   -1.6946   -1.2236   -2.0202 H   0  0  0  0  0  0  0  0  0  0  0  0
   -0.5988   -0.0874   -1.2046 H   0  0  0  0  0  0  0  0  0  0  0  0
   -1.9371    0.5271   -2.1560 H   0  0  0  0  0  0  0  0  0  0  0  0
   -1.8922   -2.3971    2.3862 H   0  0  0  0  0  0  0  0  0  0  0  0
   -0.2015   -1.5008    3.9447 H   0  0  0  0  0  0  0  0  0  0  0  0
    2.2571   -1.0922    4.1245 H   0  0  0  0  0  0  0  0  0  0  0  0
    3.5448   -0.8044    2.0053 H   0  0  0  0  0  0  0  0  0  0  0  0
  1  2  1  0
  1 26  1  0
  1 27  1  0
  1 28  1  0
  2  3  1  0
  2 29  1  0
  2 30  1  0
  3  4  1  0
  4  5  1  0
  4 31  1  0
  4 32  1  0
  5  6  1  0
  5 33  1  0
  5 34  1  0
  6  7  1  0
  6 35  1  0
  7  8  2  0
  7  9  2  0
  7 10  1  0
 10 11  1  0
 10 12  1  0
 10 13  1  0
 11 36  1  0
 11 37  1  0
 11 38  1  0
 12 39  1  0
 12 40  1  0
 12 41  1  0
 13 14  2  0
 13 15  1  0
 15 16  1  0
 15 42  1  0
 16 17  2  0
 16 21  1  0
 17 18  1  0
 17 43  1  0
 18 19  2  0
 18 44  1  0
 19 20  1  0
 19 45  1  0
 20 21  2  0
 20 22  1  0
 22 23  1  0
 22 24  1  0
 22 25  1  0
M  END
>  <group_name>  (1) 
BRI

>  <molecule_index>  (1) 
00638

>  <conformer_index>  (1) 
08

>  <method>  (1) 
openff-1.3.0

>  <basis>  (1) 
smirnoff

>  <program>  (1) 
openmm

>  <initial_energy>  (1) 
-85.9504342140879 kilocalorie / mole

>  <final_energy>  (1) 
-107.13821367871931 kilocalorie / mole

$$$$
