BRI-01231-01
     RDKit          3D

 32 33  0  0  0  0  0  0  0  0999 V2000
   -3.5959    0.3953   -1.3631 C   0  0  0  0  0  0  0  0  0  0  0  0
   -3.2224    0.1022   -0.0061 O   0  0  0  0  0  0  0  0  0  0  0  0
   -2.6072   -1.1177    0.2009 C   0  0  0  0  0  0  0  0  0  0  0  0
   -1.5106   -1.2117    1.0886 C   0  0  0  0  0  0  0  0  0  0  0  0
   -0.9904   -0.1207    1.7576 O   0  0  0  0  0  0  0  0  0  0  0  0
   -0.6254    0.9713    0.9917 C   0  0  0  0  0  0  0  0  0  0  0  0
   -0.1776    0.8747   -0.3433 C   0  0  0  0  0  0  0  0  0  0  0  0
    0.1703    1.9380   -1.0989 N   0  0  0  0  0  0  0  0  0  0  0  0
    0.0981    3.1772   -0.5411 C   0  0  0  0  0  0  0  0  0  0  0  0
   -0.3247    3.3374    0.7944 C   0  0  0  0  0  0  0  0  0  0  0  0
   -0.6858    2.2348    1.5671 C   0  0  0  0  0  0  0  0  0  0  0  0
    0.4736    4.4284   -1.3436 C   0  0  0  0  0  0  0  0  0  0  0  0
    1.4862    5.0920   -0.7119 F   0  0  0  0  0  0  0  0  0  0  0  0
   -0.6030    5.2655   -1.4140 F   0  0  0  0  0  0  0  0  0  0  0  0
    0.8772    4.1441   -2.6173 F   0  0  0  0  0  0  0  0  0  0  0  0
   -0.9354   -2.4608    1.3364 C   0  0  0  0  0  0  0  0  0  0  0  0
   -1.4050   -3.6142    0.7002 C   0  0  0  0  0  0  0  0  0  0  0  0
   -2.4820   -3.5443   -0.2056 C   0  0  0  0  0  0  0  0  0  0  0  0
   -3.0782   -2.2859   -0.4252 C   0  0  0  0  0  0  0  0  0  0  0  0
   -3.0037   -4.7465   -0.8957 C   0  0  0  0  0  0  0  0  0  0  0  0
   -2.2165   -5.8573   -0.9330 O   0  0  0  0  0  0  0  0  0  0  0  0
   -4.1099   -4.6654   -1.4142 O   0  0  0  0  0  0  0  0  0  0  0  0
   -3.5667    1.4771   -1.5246 H   0  0  0  0  0  0  0  0  0  0  0  0
   -4.6129    0.0429   -1.5604 H   0  0  0  0  0  0  0  0  0  0  0  0
   -2.9076   -0.0724   -2.0747 H   0  0  0  0  0  0  0  0  0  0  0  0
   -0.1013   -0.1041   -0.8065 H   0  0  0  0  0  0  0  0  0  0  0  0
   -0.3727    4.3347    1.2230 H   0  0  0  0  0  0  0  0  0  0  0  0
   -1.0199    2.3474    2.5949 H   0  0  0  0  0  0  0  0  0  0  0  0
   -0.1108   -2.5223    2.0411 H   0  0  0  0  0  0  0  0  0  0  0  0
   -0.9298   -4.5580    0.9509 H   0  0  0  0  0  0  0  0  0  0  0  0
   -3.9382   -2.2253   -1.0870 H   0  0  0  0  0  0  0  0  0  0  0  0
   -1.3538   -5.6351   -0.5687 H   0  0  0  0  0  0  0  0  0  0  0  0
  1  2  1  0
  1 23  1  0
  1 24  1  0
  1 25  1  0
  2  3  1  0
  3  4  2  0
  3 19  1  0
  4  5  1  0
  4 16  1  0
  5  6  1  0
  6  7  2  0
  6 11  1  0
  7  8  1  0
  7 26  1  0
  8  9  2  0
  9 10  1  0
  9 12  1  0
 10 11  2  0
 10 27  1  0
 11 28  1  0
 12 13  1  0
 12 14  1  0
 12 15  1  0
 16 17  2  0
 16 29  1  0
 17 18  1  0
 17 30  1  0
 18 19  2  0
 18 20  1  0
 19 31  1  0
 20 21  1  0
 20 22  2  0
 21 32  1  0
M  END
>  <group_name>  (1) 
BRI

>  <molecule_index>  (1) 
01231

>  <conformer_index>  (1) 
01

>  <method>  (1) 
openff-1.3.0

>  <basis>  (1) 
smirnoff

>  <program>  (1) 
openmm

>  <initial_energy>  (1) 
107.8202464389268 kilocalorie / mole

>  <final_energy>  (1) 
100.11670867340803 kilocalorie / mole

$$$$
