BRI-01545-01
     RDKit          3D

 40 41  0  0  0  0  0  0  0  0999 V2000
   -1.2876    7.7373   -0.4445 C   0  0  0  0  0  0  0  0  0  0  0  0
   -0.2020    7.4215   -1.4854 C   0  0  0  0  0  0  0  0  0  0  0  0
    0.5860    8.6843   -1.8673 C   0  0  0  0  0  0  0  0  0  0  0  0
   -0.8881    6.8827   -2.7446 C   0  0  0  0  0  0  0  0  0  0  0  0
    0.6595    6.3458   -1.0642 O   0  0  0  0  0  0  0  0  0  0  0  0
    1.4262    6.4691    0.0608 C   0  0  0  0  0  0  0  0  0  0  0  0
    1.5141    7.4616    0.7802 O   0  0  0  0  0  0  0  0  0  0  0  0
    2.2663    5.2467    0.4811 C   0  0  2  0  0  0  0  0  0  0  0  0
    1.9618    4.9441    1.4875 H   0  0  0  0  0  0  0  0  0  0  0  0
    3.7729    5.5633    0.4663 C   0  0  0  0  0  0  0  0  0  0  0  0
    4.1934    5.3173   -0.9841 C   0  0  0  0  0  0  0  0  0  0  0  0
    3.2553    4.1919   -1.3549 C   0  0  0  0  0  0  0  0  0  0  0  0
    3.4723    3.4929   -2.3378 O   0  0  0  0  0  0  0  0  0  0  0  0
    2.2026    4.1201   -0.4628 N   0  0  0  0  0  0  0  0  0  0  0  0
    1.1401    3.1784   -0.4798 C   0  0  0  0  0  0  0  0  0  0  0  0
    1.2274    1.9664   -1.1756 C   0  0  0  0  0  0  0  0  0  0  0  0
    0.1423    1.0925   -1.1467 C   0  0  0  0  0  0  0  0  0  0  0  0
   -1.0269    1.4064   -0.4297 C   0  0  0  0  0  0  0  0  0  0  0  0
   -1.1178    2.5761    0.2554 N   0  0  0  0  0  0  0  0  0  0  0  0
   -0.0671    3.4205    0.2202 C   0  0  0  0  0  0  0  0  0  0  0  0
   -2.1845    0.4008   -0.4383 C   0  0  0  0  0  0  0  0  0  0  0  0
   -1.7598   -0.7934    0.0704 F   0  0  0  0  0  0  0  0  0  0  0  0
   -3.2580    0.8185    0.2965 F   0  0  0  0  0  0  0  0  0  0  0  0
   -2.6028    0.1906   -1.7211 F   0  0  0  0  0  0  0  0  0  0  0  0
   -2.0432    8.4049   -0.8699 H   0  0  0  0  0  0  0  0  0  0  0  0
   -1.7811    6.8159   -0.1204 H   0  0  0  0  0  0  0  0  0  0  0  0
   -0.8653    8.2345    0.4329 H   0  0  0  0  0  0  0  0  0  0  0  0
   -0.0641    9.4011   -2.3779 H   0  0  0  0  0  0  0  0  0  0  0  0
    1.4129    8.4264   -2.5358 H   0  0  0  0  0  0  0  0  0  0  0  0
    0.9936    9.1816   -0.9830 H   0  0  0  0  0  0  0  0  0  0  0  0
   -1.5793    7.6223   -3.1604 H   0  0  0  0  0  0  0  0  0  0  0  0
   -0.1434    6.6365   -3.5080 H   0  0  0  0  0  0  0  0  0  0  0  0
   -1.4525    5.9743   -2.5110 H   0  0  0  0  0  0  0  0  0  0  0  0
    4.0083    6.5745    0.8165 H   0  0  0  0  0  0  0  0  0  0  0  0
    4.2898    4.8461    1.1142 H   0  0  0  0  0  0  0  0  0  0  0  0
    5.2392    5.0097   -1.0647 H   0  0  0  0  0  0  0  0  0  0  0  0
    3.9973    6.1862   -1.6181 H   0  0  0  0  0  0  0  0  0  0  0  0
    2.1117    1.6714   -1.7322 H   0  0  0  0  0  0  0  0  0  0  0  0
    0.1994    0.1511   -1.6863 H   0  0  0  0  0  0  0  0  0  0  0  0
   -0.1882    4.3462    0.7723 H   0  0  0  0  0  0  0  0  0  0  0  0
  1  2  1  0
  1 25  1  0
  1 26  1  0
  1 27  1  0
  2  3  1  0
  2  4  1  0
  2  5  1  0
  3 28  1  0
  3 29  1  0
  3 30  1  0
  4 31  1  0
  4 32  1  0
  4 33  1  0
  5  6  1  0
  6  7  2  0
  6  8  1  0
  8  9  1  1
  8 10  1  0
  8 14  1  0
 10 11  1  0
 10 34  1  0
 10 35  1  0
 11 12  1  0
 11 36  1  0
 11 37  1  0
 12 13  2  0
 12 14  1  0
 14 15  1  0
 15 16  2  0
 15 20  1  0
 16 17  1  0
 16 38  1  0
 17 18  2  0
 17 39  1  0
 18 19  1  0
 18 21  1  0
 19 20  2  0
 20 40  1  0
 21 22  1  0
 21 23  1  0
 21 24  1  0
M  END
>  <group_name>  (1) 
BRI

>  <molecule_index>  (1) 
01545

>  <conformer_index>  (1) 
01

>  <method>  (1) 
openff-1.3.0

>  <basis>  (1) 
smirnoff

>  <program>  (1) 
openmm

>  <initial_energy>  (1) 
109.12070714602336 kilocalorie / mole

>  <final_energy>  (1) 
97.9654151186863 kilocalorie / mole

$$$$
