BRI-01545-03
     RDKit          3D

 40 41  0  0  0  0  0  0  0  0999 V2000
    0.4518    8.4101   -2.4124 C   0  0  0  0  0  0  0  0  0  0  0  0
   -0.0586    7.0103   -2.0365 C   0  0  0  0  0  0  0  0  0  0  0  0
   -0.6245    6.3486   -3.2968 C   0  0  0  0  0  0  0  0  0  0  0  0
   -1.1838    7.0908   -0.9926 C   0  0  0  0  0  0  0  0  0  0  0  0
    1.0049    6.1312   -1.6204 O   0  0  0  0  0  0  0  0  0  0  0  0
    1.7169    6.3965   -0.4831 C   0  0  0  0  0  0  0  0  0  0  0  0
    1.6328    7.4029    0.2175 O   0  0  0  0  0  0  0  0  0  0  0  0
    2.7134    5.3262   -0.0093 C   0  0  2  0  0  0  0  0  0  0  0  0
    2.8389    5.4171    1.0742 H   0  0  0  0  0  0  0  0  0  0  0  0
    4.0649    5.5285   -0.7189 C   0  0  0  0  0  0  0  0  0  0  0  0
    4.7296    4.1510   -0.6985 C   0  0  0  0  0  0  0  0  0  0  0  0
    3.5150    3.2546   -0.7472 C   0  0  0  0  0  0  0  0  0  0  0  0
    3.5975    2.0676   -1.0373 O   0  0  0  0  0  0  0  0  0  0  0  0
    2.3855    3.9353   -0.3494 N   0  0  0  0  0  0  0  0  0  0  0  0
    1.1140    3.3510   -0.1279 C   0  0  0  0  0  0  0  0  0  0  0  0
    0.2250    3.9215    0.7909 C   0  0  0  0  0  0  0  0  0  0  0  0
   -1.0279    3.3391    0.9637 C   0  0  0  0  0  0  0  0  0  0  0  0
   -1.4061    2.1979    0.2322 C   0  0  0  0  0  0  0  0  0  0  0  0
   -0.5485    1.6378   -0.6597 N   0  0  0  0  0  0  0  0  0  0  0  0
    0.6688    2.1996   -0.8250 C   0  0  0  0  0  0  0  0  0  0  0  0
   -2.8042    1.6126    0.4632 C   0  0  0  0  0  0  0  0  0  0  0  0
   -3.7476    2.5586    0.1784 F   0  0  0  0  0  0  0  0  0  0  0  0
   -2.9441    1.2596    1.7751 F   0  0  0  0  0  0  0  0  0  0  0  0
   -3.0589    0.5125   -0.3056 F   0  0  0  0  0  0  0  0  0  0  0  0
    0.7439    8.9788   -1.5255 H   0  0  0  0  0  0  0  0  0  0  0  0
    1.3169    8.3312   -3.0776 H   0  0  0  0  0  0  0  0  0  0  0  0
   -0.3309    8.9782   -2.9244 H   0  0  0  0  0  0  0  0  0  0  0  0
   -1.4565    6.9310   -3.7045 H   0  0  0  0  0  0  0  0  0  0  0  0
    0.1510    6.2674   -4.0649 H   0  0  0  0  0  0  0  0  0  0  0  0
   -0.9868    5.3415   -3.0669 H   0  0  0  0  0  0  0  0  0  0  0  0
   -0.8658    7.6477   -0.1071 H   0  0  0  0  0  0  0  0  0  0  0  0
   -2.0564    7.6029   -1.4093 H   0  0  0  0  0  0  0  0  0  0  0  0
   -1.4858    6.0854   -0.6840 H   0  0  0  0  0  0  0  0  0  0  0  0
    4.6741    6.3081   -0.2492 H   0  0  0  0  0  0  0  0  0  0  0  0
    3.8840    5.8113   -1.7631 H   0  0  0  0  0  0  0  0  0  0  0  0
    5.3776    3.9927   -1.5646 H   0  0  0  0  0  0  0  0  0  0  0  0
    5.2789    3.9778    0.2306 H   0  0  0  0  0  0  0  0  0  0  0  0
    0.4824    4.7974    1.3793 H   0  0  0  0  0  0  0  0  0  0  0  0
   -1.7283    3.7699    1.6741 H   0  0  0  0  0  0  0  0  0  0  0  0
    1.3081    1.7361   -1.5686 H   0  0  0  0  0  0  0  0  0  0  0  0
  1  2  1  0
  1 25  1  0
  1 26  1  0
  1 27  1  0
  2  3  1  0
  2  4  1  0
  2  5  1  0
  3 28  1  0
  3 29  1  0
  3 30  1  0
  4 31  1  0
  4 32  1  0
  4 33  1  0
  5  6  1  0
  6  7  2  0
  6  8  1  0
  8  9  1  1
  8 10  1  0
  8 14  1  0
 10 11  1  0
 10 34  1  0
 10 35  1  0
 11 12  1  0
 11 36  1  0
 11 37  1  0
 12 13  2  0
 12 14  1  0
 14 15  1  0
 15 16  2  0
 15 20  1  0
 16 17  1  0
 16 38  1  0
 17 18  2  0
 17 39  1  0
 18 19  1  0
 18 21  1  0
 19 20  2  0
 20 40  1  0
 21 22  1  0
 21 23  1  0
 21 24  1  0
M  END
>  <group_name>  (1) 
BRI

>  <molecule_index>  (1) 
01545

>  <conformer_index>  (1) 
03

>  <method>  (1) 
openff-1.3.0

>  <basis>  (1) 
smirnoff

>  <program>  (1) 
openmm

>  <initial_energy>  (1) 
107.23657371360196 kilocalorie / mole

>  <final_energy>  (1) 
97.69415425217547 kilocalorie / mole

$$$$
