BRI-00647-06
     RDKit          3D

 40 40  0  0  0  0  0  0  0  0999 V2000
   -2.3771   -2.7684    5.5078 C   0  0  0  0  0  0  0  0  0  0  0  0
   -1.9915   -1.4188    6.1363 C   0  0  0  0  0  0  0  0  0  0  0  0
   -2.7850   -1.2556    7.4370 C   0  0  0  0  0  0  0  0  0  0  0  0
   -0.4937   -1.3788    6.4819 C   0  0  0  0  0  0  0  0  0  0  0  0
   -2.3988   -0.2982    5.3227 O   0  0  0  0  0  0  0  0  0  0  0  0
   -1.8806   -0.1398    4.0824 C   0  0  0  0  0  0  0  0  0  0  0  0
   -1.0554   -0.8577    3.5252 O   0  0  0  0  0  0  0  0  0  0  0  0
   -2.3712    0.9304    3.3838 N   0  0  0  0  0  0  0  0  0  0  0  0
   -1.9875    1.3314    2.0147 C   0  0  1  0  0  0  0  0  0  0  0  0
   -0.5019    1.7382    1.9566 C   0  0  0  0  0  0  0  0  0  0  0  0
   -0.1533    2.3680    0.6261 C   0  0  0  0  0  0  0  0  0  0  0  0
    0.4529    1.6134   -0.3943 C   0  0  0  0  0  0  0  0  0  0  0  0
    0.8251    2.1307   -1.5797 N   0  0  0  0  0  0  0  0  0  0  0  0
    0.5923    3.4491   -1.8148 C   0  0  0  0  0  0  0  0  0  0  0  0
   -0.0103    4.2553   -0.8282 C   0  0  0  0  0  0  0  0  0  0  0  0
   -0.3813    3.7237    0.4028 C   0  0  0  0  0  0  0  0  0  0  0  0
    0.9858    4.0970   -3.1485 C   0  0  0  0  0  0  0  0  0  0  0  0
   -0.1189    4.6346   -3.7451 F   0  0  0  0  0  0  0  0  0  0  0  0
    1.8729    5.1105   -2.9190 F   0  0  0  0  0  0  0  0  0  0  0  0
    1.5613    3.2199   -4.0236 F   0  0  0  0  0  0  0  0  0  0  0  0
   -2.3357    0.3032    0.9193 C   0  0  0  0  0  0  0  0  0  0  0  0
   -1.9076   -0.9830    1.0541 O   0  0  0  0  0  0  0  0  0  0  0  0
   -2.9848    0.7284   -0.0270 O   0  0  0  0  0  0  0  0  0  0  0  0
   -3.4208   -2.7494    5.1797 H   0  0  0  0  0  0  0  0  0  0  0  0
   -1.7456   -3.0025    4.6465 H   0  0  0  0  0  0  0  0  0  0  0  0
   -2.2553   -3.5783    6.2336 H   0  0  0  0  0  0  0  0  0  0  0  0
   -2.5422   -0.3008    7.9138 H   0  0  0  0  0  0  0  0  0  0  0  0
   -3.8599   -1.2746    7.2318 H   0  0  0  0  0  0  0  0  0  0  0  0
   -2.5534   -2.0617    8.1401 H   0  0  0  0  0  0  0  0  0  0  0  0
    0.1227   -1.6208    5.6119 H   0  0  0  0  0  0  0  0  0  0  0  0
   -0.2609   -2.1096    7.2624 H   0  0  0  0  0  0  0  0  0  0  0  0
   -0.2143   -0.3841    6.8418 H   0  0  0  0  0  0  0  0  0  0  0  0
   -3.1258    1.4216    3.8547 H   0  0  0  0  0  0  0  0  0  0  0  0
   -2.5724    2.2226    1.7644 H   0  0  0  0  0  0  0  0  0  0  0  0
   -0.2902    2.4542    2.7575 H   0  0  0  0  0  0  0  0  0  0  0  0
    0.1424    0.8700    2.1289 H   0  0  0  0  0  0  0  0  0  0  0  0
    0.6406    0.5573   -0.2225 H   0  0  0  0  0  0  0  0  0  0  0  0
   -0.1831    5.3072   -1.0368 H   0  0  0  0  0  0  0  0  0  0  0  0
   -0.8375    4.3560    1.1607 H   0  0  0  0  0  0  0  0  0  0  0  0
   -1.4747   -1.0695    1.9339 H   0  0  0  0  0  0  0  0  0  0  0  0
  1  2  1  0
  1 24  1  0
  1 25  1  0
  1 26  1  0
  2  3  1  0
  2  4  1  0
  2  5  1  0
  3 27  1  0
  3 28  1  0
  3 29  1  0
  4 30  1  0
  4 31  1  0
  4 32  1  0
  5  6  1  0
  6  7  2  0
  6  8  1  0
  8  9  1  0
  8 33  1  0
  9 10  1  0
  9 21  1  0
  9 34  1  6
 10 11  1  0
 10 35  1  0
 10 36  1  0
 11 12  2  0
 11 16  1  0
 12 13  1  0
 12 37  1  0
 13 14  2  0
 14 15  1  0
 14 17  1  0
 15 16  2  0
 15 38  1  0
 16 39  1  0
 17 18  1  0
 17 19  1  0
 17 20  1  0
 21 22  1  0
 21 23  2  0
 22 40  1  0
M  END
>  <group_name>  (1) 
BRI

>  <molecule_index>  (1) 
00647

>  <conformer_index>  (1) 
06

>  <method>  (1) 
openff-1.3.0

>  <basis>  (1) 
smirnoff

>  <program>  (1) 
openmm

>  <initial_energy>  (1) 
19.48530203099812 kilocalorie / mole

>  <final_energy>  (1) 
10.636491728960465 kilocalorie / mole

$$$$
