BRI-00739-03
     RDKit          3D

 34 35  0  0  0  0  0  0  0  0999 V2000
    7.8421    1.3221    1.8443 C   0  0  0  0  0  0  0  0  0  0  0  0
    6.8918    0.2686    1.5158 N   0  0  0  0  0  0  0  0  0  0  0  0
    7.1545   -0.7151    0.5966 C   0  0  0  0  0  0  0  0  0  0  0  0
    8.2211   -0.7006   -0.0032 O   0  0  0  0  0  0  0  0  0  0  0  0
    6.1729   -1.8253    0.3148 C   0  0  2  0  0  0  0  0  0  0  0  0
    6.3363   -2.2393   -1.1085 C   0  0  0  0  0  0  0  0  0  0  0  0
    5.3992   -2.2347   -2.0214 N   0  0  0  0  0  0  0  0  0  0  0  0
    4.1167   -1.7970   -1.7165 C   0  0  0  0  0  0  0  0  0  0  0  0
    3.1491   -1.7225   -2.8713 C   0  0  0  0  0  0  0  0  0  0  0  0
    3.7546   -1.3883   -0.4425 C   0  0  0  0  0  0  0  0  0  0  0  0
    4.7613   -1.4055    0.6044 C   0  0  0  0  0  0  0  0  0  0  0  0
    4.4724   -1.0903    1.7572 O   0  0  0  0  0  0  0  0  0  0  0  0
    2.3913   -0.9340   -0.1313 C   0  0  0  0  0  0  0  0  0  0  0  0
    2.1550    0.3327    0.3959 C   0  0  0  0  0  0  0  0  0  0  0  0
    0.8499    0.7653    0.6999 C   0  0  0  0  0  0  0  0  0  0  0  0
   -0.2184   -0.0506    0.4863 N   0  0  0  0  0  0  0  0  0  0  0  0
    0.0078   -1.2815   -0.0052 C   0  0  0  0  0  0  0  0  0  0  0  0
    1.2827   -1.7517   -0.3217 C   0  0  0  0  0  0  0  0  0  0  0  0
    0.6671    2.1770    1.2696 C   0  0  0  0  0  0  0  0  0  0  0  0
    1.1589    3.0934    0.3840 F   0  0  0  0  0  0  0  0  0  0  0  0
    1.3680    2.3003    2.4352 F   0  0  0  0  0  0  0  0  0  0  0  0
   -0.6392    2.4877    1.5215 F   0  0  0  0  0  0  0  0  0  0  0  0
    8.0171    1.9606    0.9723 H   0  0  0  0  0  0  0  0  0  0  0  0
    8.7954    0.8892    2.1650 H   0  0  0  0  0  0  0  0  0  0  0  0
    7.4521    1.9422    2.6573 H   0  0  0  0  0  0  0  0  0  0  0  0
    6.0279    0.1684    2.0523 H   0  0  0  0  0  0  0  0  0  0  0  0
    6.4228   -2.6683    0.9571 H   0  0  0  0  0  0  0  0  0  0  0  0
    7.3133   -2.6012   -1.4201 H   0  0  0  0  0  0  0  0  0  0  0  0
    3.6916   -1.7549   -3.8211 H   0  0  0  0  0  0  0  0  0  0  0  0
    2.5806   -0.7886   -2.8417 H   0  0  0  0  0  0  0  0  0  0  0  0
    2.4611   -2.5710   -2.8430 H   0  0  0  0  0  0  0  0  0  0  0  0
    2.9901    1.0008    0.5819 H   0  0  0  0  0  0  0  0  0  0  0  0
   -0.8425   -1.9389   -0.1614 H   0  0  0  0  0  0  0  0  0  0  0  0
    1.3936   -2.7623   -0.6985 H   0  0  0  0  0  0  0  0  0  0  0  0
  1  2  1  0
  1 23  1  0
  1 24  1  0
  1 25  1  0
  2  3  1  0
  2 26  1  0
  3  4  2  0
  3  5  1  0
  5  6  1  0
  5 11  1  0
  5 27  1  1
  6  7  2  0
  6 28  1  0
  7  8  1  0
  8  9  1  0
  8 10  2  0
  9 29  1  0
  9 30  1  0
  9 31  1  0
 10 11  1  0
 10 13  1  0
 11 12  2  0
 13 14  2  0
 13 18  1  0
 14 15  1  0
 14 32  1  0
 15 16  2  0
 15 19  1  0
 16 17  1  0
 17 18  2  0
 17 33  1  0
 18 34  1  0
 19 20  1  0
 19 21  1  0
 19 22  1  0
M  END
>  <group_name>  (1) 
BRI

>  <molecule_index>  (1) 
00739

>  <conformer_index>  (1) 
03

>  <method>  (1) 
openff-1.3.0

>  <basis>  (1) 
smirnoff

>  <program>  (1) 
openmm

>  <initial_energy>  (1) 
-94.70601087381114 kilocalorie / mole

>  <final_energy>  (1) 
-106.12804970704508 kilocalorie / mole

$$$$
