JNS-00129-09
     RDKit          3D

 31 33  0  0  0  0  0  0  0  0999 V2000
   -0.0996   -2.5178    0.0009 N   0  0  0  0  0  0  0  0  0  0  0  0
   -0.7228   -1.2699    0.1450 C   0  0  0  0  0  0  0  0  0  0  0  0
   -0.1573   -0.0559   -0.3506 C   0  0  0  0  0  0  0  0  0  0  0  0
    1.1336   -0.1041   -0.8870 N   0  0  0  0  0  0  0  0  0  0  0  0
    1.7783    0.8790   -1.6501 C   0  0  0  0  0  0  0  0  0  0  0  0
    3.1828    0.9077   -1.6410 C   0  0  0  0  0  0  0  0  0  0  0  0
    3.8669    1.8563   -2.4097 C   0  0  0  0  0  0  0  0  0  0  0  0
    3.1852    2.7590   -3.1823 C   0  0  0  0  0  0  0  0  0  0  0  0
    4.1516    3.5384   -3.7958 N   0  0  0  0  0  0  0  0  0  0  0  0
    5.4125    3.1558   -3.4394 N   0  0  0  0  0  0  0  0  0  0  0  0
    5.2692    2.1504   -2.6069 C   0  0  0  0  0  0  0  0  0  0  0  0
    1.7908    2.7509   -3.2267 C   0  0  0  0  0  0  0  0  0  0  0  0
    1.0911    1.8036   -2.4640 C   0  0  0  0  0  0  0  0  0  0  0  0
   -0.7919    1.1260   -0.2462 N   0  0  0  0  0  0  0  0  0  0  0  0
   -2.0096    1.1744    0.3545 C   0  0  0  0  0  0  0  0  0  0  0  0
   -2.6020    0.0062    0.8743 C   0  0  0  0  0  0  0  0  0  0  0  0
   -1.9604   -1.2260    0.7727 C   0  0  0  0  0  0  0  0  0  0  0  0
   -2.7736    2.4969    0.4817 C   0  0  0  0  0  0  0  0  0  0  0  0
   -2.1413    3.5446   -0.1254 F   0  0  0  0  0  0  0  0  0  0  0  0
   -2.9447    2.8017    1.8019 F   0  0  0  0  0  0  0  0  0  0  0  0
   -4.0107    2.3665   -0.0831 F   0  0  0  0  0  0  0  0  0  0  0  0
   -0.6359   -3.3469    0.2484 H   0  0  0  0  0  0  0  0  0  0  0  0
    0.5873   -2.6016   -0.7480 H   0  0  0  0  0  0  0  0  0  0  0  0
    1.7232   -0.8053   -0.4563 H   0  0  0  0  0  0  0  0  0  0  0  0
    3.7421    0.2049   -1.0338 H   0  0  0  0  0  0  0  0  0  0  0  0
    3.9404    4.3095   -4.4297 H   0  0  0  0  0  0  0  0  0  0  0  0
    6.0876    1.6155   -2.1346 H   0  0  0  0  0  0  0  0  0  0  0  0
    1.2495    3.4628   -3.8419 H   0  0  0  0  0  0  0  0  0  0  0  0
    0.0086    1.7923   -2.5214 H   0  0  0  0  0  0  0  0  0  0  0  0
   -3.5739    0.0723    1.3559 H   0  0  0  0  0  0  0  0  0  0  0  0
   -2.4244   -2.1236    1.1694 H   0  0  0  0  0  0  0  0  0  0  0  0
  1  2  1  0
  1 22  1  0
  1 23  1  0
  2  3  2  0
  2 17  1  0
  3  4  1  0
  3 14  1  0
  4  5  1  0
  4 24  1  0
  5  6  2  0
  5 13  1  0
  6  7  1  0
  6 25  1  0
  7  8  2  0
  7 11  1  0
  8  9  1  0
  8 12  1  0
  9 10  1  0
  9 26  1  0
 10 11  2  0
 11 27  1  0
 12 13  2  0
 12 28  1  0
 13 29  1  0
 14 15  2  0
 15 16  1  0
 15 18  1  0
 16 17  2  0
 16 30  1  0
 17 31  1  0
 18 19  1  0
 18 20  1  0
 18 21  1  0
M  END
>  <group_name>  (1) 
JNS

>  <molecule_index>  (1) 
00129

>  <conformer_index>  (1) 
09

>  <method>  (1) 
openff-1.3.0

>  <basis>  (1) 
smirnoff

>  <program>  (1) 
openmm

>  <initial_energy>  (1) 
128.25268807950016 kilocalorie / mole

>  <final_energy>  (1) 
116.63461411957863 kilocalorie / mole

$$$$
