JNS-00617-02
     RDKit          3D

 44 48  0  0  0  0  0  0  0  0999 V2000
   -1.8973   -4.0856   -2.5632 F   0  0  0  0  0  0  0  0  0  0  0  0
   -1.2065   -4.1304   -1.3851 C   0  0  0  0  0  0  0  0  0  0  0  0
   -1.6273   -5.2322   -0.6951 F   0  0  0  0  0  0  0  0  0  0  0  0
    0.1180   -4.2954   -1.6786 F   0  0  0  0  0  0  0  0  0  0  0  0
   -1.4923   -2.8656   -0.5679 C   0  0  0  0  0  0  0  0  0  0  0  0
   -0.4789   -2.0330   -0.1977 N   0  0  0  0  0  0  0  0  0  0  0  0
   -0.8044   -0.9399    0.5169 C   0  0  0  0  0  0  0  0  0  0  0  0
   -0.0005    0.0437    1.0230 C   0  0  0  0  0  0  0  0  0  0  0  0
   -0.8810    0.9228    1.6589 N   0  0  0  0  0  0  0  0  0  0  0  0
   -0.5451    2.2658    2.1499 C   0  0  0  0  0  0  0  0  0  0  0  0
   -0.1029    3.1948    1.0102 C   0  0  0  0  0  0  0  0  0  0  0  0
   -1.1872    3.5692   -0.0009 C   0  0  0  0  0  0  0  0  0  0  0  0
   -0.9458    5.0460    0.2828 C   0  0  0  0  0  0  0  0  0  0  0  0
    0.0393    4.6699    1.3826 C   0  0  0  0  0  0  0  0  0  0  0  0
   -2.1671    0.4860    1.5815 N   0  0  0  0  0  0  0  0  0  0  0  0
   -2.1000   -0.6219    0.8931 C   0  0  0  0  0  0  0  0  0  0  0  0
   -3.1515   -1.4474    0.5338 C   0  0  0  0  0  0  0  0  0  0  0  0
   -2.8326   -2.5839   -0.2084 C   0  0  0  0  0  0  0  0  0  0  0  0
    1.4597    0.1465    0.8907 C   0  0  0  0  0  0  0  0  0  0  0  0
    2.2668    0.4970    1.9937 C   0  0  0  0  0  0  0  0  0  0  0  0
    3.6590    0.6149    1.8588 C   0  0  0  0  0  0  0  0  0  0  0  0
    4.2362    0.3763    0.6119 C   0  0  0  0  0  0  0  0  0  0  0  0
    5.5214    0.3942    0.1270 N   0  0  0  0  0  0  0  0  0  0  0  0
    5.4526    0.0542   -1.2051 C   0  0  0  0  0  0  0  0  0  0  0  0
    6.4705   -0.0551   -2.0741 O   0  0  0  0  0  0  0  0  0  0  0  0
    4.2396   -0.1716   -1.6071 N   0  0  0  0  0  0  0  0  0  0  0  0
    3.4570    0.0196   -0.4731 C   0  0  0  0  0  0  0  0  0  0  0  0
    2.0753   -0.1090   -0.3489 C   0  0  0  0  0  0  0  0  0  0  0  0
   -1.4268    2.6903    2.6399 H   0  0  0  0  0  0  0  0  0  0  0  0
    0.2392    2.2015    2.9067 H   0  0  0  0  0  0  0  0  0  0  0  0
    0.7986    2.8204    0.5126 H   0  0  0  0  0  0  0  0  0  0  0  0
   -0.9610    3.2660   -1.0286 H   0  0  0  0  0  0  0  0  0  0  0  0
   -2.1935    3.2323    0.2708 H   0  0  0  0  0  0  0  0  0  0  0  0
   -1.8307    5.5844    0.6374 H   0  0  0  0  0  0  0  0  0  0  0  0
   -0.4862    5.5831   -0.5535 H   0  0  0  0  0  0  0  0  0  0  0  0
   -0.3170    4.9172    2.3882 H   0  0  0  0  0  0  0  0  0  0  0  0
    1.0472    5.0717    1.2352 H   0  0  0  0  0  0  0  0  0  0  0  0
   -4.1728   -1.2124    0.8206 H   0  0  0  0  0  0  0  0  0  0  0  0
   -3.6213   -3.2633   -0.5154 H   0  0  0  0  0  0  0  0  0  0  0  0
    1.8184    0.6541    2.9689 H   0  0  0  0  0  0  0  0  0  0  0  0
    4.2778    0.8782    2.7112 H   0  0  0  0  0  0  0  0  0  0  0  0
    6.3770    0.5911    0.6326 H   0  0  0  0  0  0  0  0  0  0  0  0
    6.0358   -0.3239   -2.8982 H   0  0  0  0  0  0  0  0  0  0  0  0
    1.4916   -0.4011   -1.2165 H   0  0  0  0  0  0  0  0  0  0  0  0
  1  2  1  0
  2  3  1  0
  2  4  1  0
  2  5  1  0
  5  6  2  0
  5 18  1  0
  6  7  1  0
  7  8  2  0
  7 16  1  0
  8  9  1  0
  8 19  1  0
  9 10  1  0
  9 15  1  0
 10 11  1  0
 10 29  1  0
 10 30  1  0
 11 12  1  0
 11 14  1  0
 11 31  1  0
 12 13  1  0
 12 32  1  0
 12 33  1  0
 13 14  1  0
 13 34  1  0
 13 35  1  0
 14 36  1  0
 14 37  1  0
 15 16  2  0
 16 17  1  0
 17 18  2  0
 17 38  1  0
 18 39  1  0
 19 20  2  0
 19 28  1  0
 20 21  1  0
 20 40  1  0
 21 22  2  0
 21 41  1  0
 22 23  1  0
 22 27  1  0
 23 24  1  0
 23 42  1  0
 24 25  1  0
 24 26  2  0
 25 43  1  0
 26 27  1  0
 27 28  2  0
 28 44  1  0
M  END
>  <group_name>  (1) 
JNS

>  <molecule_index>  (1) 
00617

>  <conformer_index>  (1) 
02

>  <method>  (1) 
openff-1.3.0

>  <basis>  (1) 
smirnoff

>  <program>  (1) 
openmm

>  <initial_energy>  (1) 
114.40435774702091 kilocalorie / mole

>  <final_energy>  (1) 
100.35723661912088 kilocalorie / mole

$$$$
