JNS-01494-04
     RDKit          3D

 42 45  0  0  0  0  0  0  0  0999 V2000
   -0.0499   -1.8924    2.3485 C   0  0  0  0  0  0  0  0  0  0  0  0
   -0.5604   -0.5255    1.8769 C   0  0  0  0  0  0  0  0  0  0  0  0
   -0.1661   -0.1163    0.4364 C   0  0  2  0  0  0  0  0  0  0  0  0
   -0.6585   -1.1336   -0.6071 C   0  0  0  0  0  0  0  0  0  0  0  0
    1.3289    0.1355    0.2777 C   0  0  0  0  0  0  0  0  0  0  0  0
    2.1890   -0.8591    0.2256 N   0  0  0  0  0  0  0  0  0  0  0  0
    3.4113   -0.2696   -0.0423 C   0  0  0  0  0  0  0  0  0  0  0  0
    3.2971    1.1000   -0.1658 C   0  0  0  0  0  0  0  0  0  0  0  0
    4.3364    1.9181   -0.4281 N   0  0  0  0  0  0  0  0  0  0  0  0
    5.5639    1.3458   -0.5831 C   0  0  0  0  0  0  0  0  0  0  0  0
    5.7286   -0.0563   -0.4687 C   0  0  0  0  0  0  0  0  0  0  0  0
    4.6399   -0.8850   -0.1937 C   0  0  0  0  0  0  0  0  0  0  0  0
    6.7962    2.2051   -0.8941 C   0  0  0  0  0  0  0  0  0  0  0  0
    7.7000    2.0996    0.1244 F   0  0  0  0  0  0  0  0  0  0  0  0
    7.3950    1.7572   -2.0375 F   0  0  0  0  0  0  0  0  0  0  0  0
    6.4964    3.5272   -1.0670 F   0  0  0  0  0  0  0  0  0  0  0  0
    1.9618    1.3754    0.0641 N   0  0  0  0  0  0  0  0  0  0  0  0
    1.3875    2.6631    0.0789 C   0  0  0  0  0  0  0  0  0  0  0  0
    1.7943    3.6332   -0.8596 C   0  0  0  0  0  0  0  0  0  0  0  0
    1.2207    4.9078   -0.8374 C   0  0  0  0  0  0  0  0  0  0  0  0
    0.2711    5.2425    0.0896 C   0  0  0  0  0  0  0  0  0  0  0  0
   -0.0663    6.5592   -0.1779 N   0  0  0  0  0  0  0  0  0  0  0  0
    0.6357    7.0576   -1.2367 N   0  0  0  0  0  0  0  0  0  0  0  0
    1.4193    6.0875   -1.6493 C   0  0  0  0  0  0  0  0  0  0  0  0
   -0.1431    4.3169    1.0465 C   0  0  0  0  0  0  0  0  0  0  0  0
    0.4213    3.0320    1.0407 C   0  0  0  0  0  0  0  0  0  0  0  0
   -0.4212   -2.6961    1.7066 H   0  0  0  0  0  0  0  0  0  0  0  0
   -0.4021   -2.0847    3.3663 H   0  0  0  0  0  0  0  0  0  0  0  0
    1.0431   -1.9209    2.3618 H   0  0  0  0  0  0  0  0  0  0  0  0
   -1.6530   -0.5304    1.9474 H   0  0  0  0  0  0  0  0  0  0  0  0
   -0.1995    0.2326    2.5778 H   0  0  0  0  0  0  0  0  0  0  0  0
   -0.6916    0.8148    0.2146 H   0  0  0  0  0  0  0  0  0  0  0  0
   -0.1380   -2.0912   -0.5085 H   0  0  0  0  0  0  0  0  0  0  0  0
   -0.4741   -0.7520   -1.6163 H   0  0  0  0  0  0  0  0  0  0  0  0
   -1.7333   -1.3059   -0.4948 H   0  0  0  0  0  0  0  0  0  0  0  0
    6.7156   -0.4905   -0.5967 H   0  0  0  0  0  0  0  0  0  0  0  0
    4.7314   -1.9633   -0.0997 H   0  0  0  0  0  0  0  0  0  0  0  0
    2.5452    3.4013   -1.6096 H   0  0  0  0  0  0  0  0  0  0  0  0
   -0.7489    7.0933    0.3602 H   0  0  0  0  0  0  0  0  0  0  0  0
    2.1145    6.1603   -2.4804 H   0  0  0  0  0  0  0  0  0  0  0  0
   -0.8831    4.5897    1.7925 H   0  0  0  0  0  0  0  0  0  0  0  0
    0.1188    2.3345    1.8122 H   0  0  0  0  0  0  0  0  0  0  0  0
  1  2  1  0
  1 27  1  0
  1 28  1  0
  1 29  1  0
  2  3  1  0
  2 30  1  0
  2 31  1  0
  3  4  1  0
  3  5  1  0
  3 32  1  6
  4 33  1  0
  4 34  1  0
  4 35  1  0
  5  6  2  0
  5 17  1  0
  6  7  1  0
  7  8  2  0
  7 12  1  0
  8  9  1  0
  8 17  1  0
  9 10  2  0
 10 11  1  0
 10 13  1  0
 11 12  2  0
 11 36  1  0
 12 37  1  0
 13 14  1  0
 13 15  1  0
 13 16  1  0
 17 18  1  0
 18 19  2  0
 18 26  1  0
 19 20  1  0
 19 38  1  0
 20 21  2  0
 20 24  1  0
 21 22  1  0
 21 25  1  0
 22 23  1  0
 22 39  1  0
 23 24  2  0
 24 40  1  0
 25 26  2  0
 25 41  1  0
 26 42  1  0
M  END
>  <group_name>  (1) 
JNS

>  <molecule_index>  (1) 
01494

>  <conformer_index>  (1) 
04

>  <method>  (1) 
openff-1.3.0

>  <basis>  (1) 
smirnoff

>  <program>  (1) 
openmm

>  <initial_energy>  (1) 
165.69397224636558 kilocalorie / mole

>  <final_energy>  (1) 
152.41388266568046 kilocalorie / mole

$$$$
