JNS-02157-06
     RDKit          3D

 42 45  0  0  0  0  0  0  0  0999 V2000
   -1.0275    0.2205    2.3959 C   0  0  0  0  0  0  0  0  0  0  0  0
   -0.3801    1.3002    1.5156 C   0  0  2  0  0  0  0  0  0  0  0  0
   -0.9366    2.6976    1.8407 C   0  0  0  0  0  0  0  0  0  0  0  0
   -2.3664    2.8307    1.3611 C   0  0  0  0  0  0  0  0  0  0  0  0
   -2.8238    2.0734    0.3273 C   0  0  0  0  0  0  0  0  0  0  0  0
   -1.9774    1.0848   -0.4387 C   0  0  0  0  0  0  0  0  0  0  0  0
   -0.5975    1.0115    0.0872 N   0  0  0  0  0  0  0  0  0  0  0  0
    0.4654    0.8696   -0.8031 C   0  0  0  0  0  0  0  0  0  0  0  0
    0.2435    0.7695   -2.0062 O   0  0  0  0  0  0  0  0  0  0  0  0
    1.8718    0.9732   -0.3888 C   0  0  0  0  0  0  0  0  0  0  0  0
    2.6076    2.1128   -0.7129 C   0  0  0  0  0  0  0  0  0  0  0  0
    3.9372    2.2223   -0.3208 C   0  0  0  0  0  0  0  0  0  0  0  0
    4.5684    1.2643    0.3759 N   0  0  0  0  0  0  0  0  0  0  0  0
    3.8940    0.1198    0.6862 C   0  0  0  0  0  0  0  0  0  0  0  0
    2.5341   -0.0545    0.3023 C   0  0  0  0  0  0  0  0  0  0  0  0
    1.6711   -1.5444    0.6408 Cl  0  0  0  0  0  0  0  0  0  0  0  0
    4.6215   -0.9851    1.4698 C   0  0  0  0  0  0  0  0  0  0  0  0
    3.9729   -1.2372    2.6458 F   0  0  0  0  0  0  0  0  0  0  0  0
    4.6856   -2.1353    0.7366 F   0  0  0  0  0  0  0  0  0  0  0  0
    5.9043   -0.6396    1.7904 F   0  0  0  0  0  0  0  0  0  0  0  0
   -4.1712    2.2950    0.1311 N   0  0  0  0  0  0  0  0  0  0  0  0
   -4.5569    3.1721    1.0221 N   0  0  0  0  0  0  0  0  0  0  0  0
   -3.4882    3.5328    1.7907 N   0  0  0  0  0  0  0  0  0  0  0  0
   -3.5502    4.5080    2.8145 C   0  0  0  0  0  0  0  0  0  0  0  0
   -2.4116    4.8676    3.4491 N   0  0  0  0  0  0  0  0  0  0  0  0
   -2.4901    5.7979    4.4066 C   0  0  0  0  0  0  0  0  0  0  0  0
   -3.6876    6.3883    4.7568 C   0  0  0  0  0  0  0  0  0  0  0  0
   -3.7549    7.3320    5.7319 F   0  0  0  0  0  0  0  0  0  0  0  0
   -4.8128    5.9763    4.0717 C   0  0  0  0  0  0  0  0  0  0  0  0
   -4.7510    5.0492    3.1130 N   0  0  0  0  0  0  0  0  0  0  0  0
   -0.6227   -0.7649    2.1524 H   0  0  0  0  0  0  0  0  0  0  0  0
   -0.8231    0.4231    3.4514 H   0  0  0  0  0  0  0  0  0  0  0  0
   -2.1122    0.1852    2.2578 H   0  0  0  0  0  0  0  0  0  0  0  0
    0.6856    1.3106    1.7600 H   0  0  0  0  0  0  0  0  0  0  0  0
   -0.8702    2.8688    2.9186 H   0  0  0  0  0  0  0  0  0  0  0  0
   -0.3275    3.4588    1.3439 H   0  0  0  0  0  0  0  0  0  0  0  0
   -1.9861    1.3971   -1.4878 H   0  0  0  0  0  0  0  0  0  0  0  0
   -2.4447    0.0969   -0.3889 H   0  0  0  0  0  0  0  0  0  0  0  0
    2.1504    2.9189   -1.2795 H   0  0  0  0  0  0  0  0  0  0  0  0
    4.4875    3.1213   -0.5833 H   0  0  0  0  0  0  0  0  0  0  0  0
   -1.5838    6.0982    4.9251 H   0  0  0  0  0  0  0  0  0  0  0  0
   -5.7747    6.4173    4.3180 H   0  0  0  0  0  0  0  0  0  0  0  0
  1  2  1  0
  1 31  1  0
  1 32  1  0
  1 33  1  0
  2  3  1  0
  2  7  1  0
  2 34  1  6
  3  4  1  0
  3 35  1  0
  3 36  1  0
  4  5  2  0
  4 23  1  0
  5  6  1  0
  5 21  1  0
  6  7  1  0
  6 37  1  0
  6 38  1  0
  7  8  1  0
  8  9  2  0
  8 10  1  0
 10 11  2  0
 10 15  1  0
 11 12  1  0
 11 39  1  0
 12 13  2  0
 12 40  1  0
 13 14  1  0
 14 15  2  0
 14 17  1  0
 15 16  1  0
 17 18  1  0
 17 19  1  0
 17 20  1  0
 21 22  2  0
 22 23  1  0
 23 24  1  0
 24 25  2  0
 24 30  1  0
 25 26  1  0
 26 27  2  0
 26 41  1  0
 27 28  1  0
 27 29  1  0
 29 30  2  0
 29 42  1  0
M  END
>  <group_name>  (1) 
JNS

>  <molecule_index>  (1) 
02157

>  <conformer_index>  (1) 
06

>  <method>  (1) 
openff-1.3.0

>  <basis>  (1) 
smirnoff

>  <program>  (1) 
openmm

>  <initial_energy>  (1) 
91.33439239782521 kilocalorie / mole

>  <final_energy>  (1) 
80.43677526690918 kilocalorie / mole

$$$$
