JNS-00129-07
     RDKit          3D

 31 33  0  0  0  0  0  0  0  0999 V2000
    0.3470   -1.1052    2.0046 N   0  0  0  0  0  0  0  0  0  0  0  0
   -0.5230   -0.6956    0.9840 C   0  0  0  0  0  0  0  0  0  0  0  0
   -0.0982    0.0847   -0.1340 C   0  0  0  0  0  0  0  0  0  0  0  0
    1.2701    0.3376   -0.2761 N   0  0  0  0  0  0  0  0  0  0  0  0
    1.8824    1.2703   -1.1244 C   0  0  0  0  0  0  0  0  0  0  0  0
    3.2058    1.0276   -1.5286 C   0  0  0  0  0  0  0  0  0  0  0  0
    3.8635    1.9466   -2.3541 C   0  0  0  0  0  0  0  0  0  0  0  0
    3.2367    3.0908   -2.7714 C   0  0  0  0  0  0  0  0  0  0  0  0
    4.1558    3.7589   -3.5631 N   0  0  0  0  0  0  0  0  0  0  0  0
    5.3354    3.0781   -3.6545 N   0  0  0  0  0  0  0  0  0  0  0  0
    5.1852    1.9865   -2.9401 C   0  0  0  0  0  0  0  0  0  0  0  0
    1.9278    3.3715   -2.3784 C   0  0  0  0  0  0  0  0  0  0  0  0
    1.2565    2.4611   -1.5482 C   0  0  0  0  0  0  0  0  0  0  0  0
   -0.9562    0.5098   -1.0793 N   0  0  0  0  0  0  0  0  0  0  0  0
   -2.2714    0.1850   -0.9761 C   0  0  0  0  0  0  0  0  0  0  0  0
   -2.7366   -0.5969    0.1000 C   0  0  0  0  0  0  0  0  0  0  0  0
   -1.8630   -1.0434    1.0887 C   0  0  0  0  0  0  0  0  0  0  0  0
   -3.2852    0.6606   -2.0225 C   0  0  0  0  0  0  0  0  0  0  0  0
   -3.8400   -0.4199   -2.6466 F   0  0  0  0  0  0  0  0  0  0  0  0
   -2.7365    1.4741   -2.9729 F   0  0  0  0  0  0  0  0  0  0  0  0
   -4.2897    1.3510   -1.4054 F   0  0  0  0  0  0  0  0  0  0  0  0
   -0.0624   -1.5282    2.8352 H   0  0  0  0  0  0  0  0  0  0  0  0
    1.2034   -0.5638    2.1195 H   0  0  0  0  0  0  0  0  0  0  0  0
    1.8567   -0.4056    0.0823 H   0  0  0  0  0  0  0  0  0  0  0  0
    3.7194    0.1265   -1.2129 H   0  0  0  0  0  0  0  0  0  0  0  0
    3.9655    4.6478   -4.0265 H   0  0  0  0  0  0  0  0  0  0  0  0
    5.9457    1.2231   -2.8078 H   0  0  0  0  0  0  0  0  0  0  0  0
    1.4315    4.2800   -2.7049 H   0  0  0  0  0  0  0  0  0  0  0  0
    0.2472    2.6984   -1.2317 H   0  0  0  0  0  0  0  0  0  0  0  0
   -3.7923   -0.8486    0.1565 H   0  0  0  0  0  0  0  0  0  0  0  0
   -2.2282   -1.6402    1.9187 H   0  0  0  0  0  0  0  0  0  0  0  0
  1  2  1  0
  1 22  1  0
  1 23  1  0
  2  3  2  0
  2 17  1  0
  3  4  1  0
  3 14  1  0
  4  5  1  0
  4 24  1  0
  5  6  2  0
  5 13  1  0
  6  7  1  0
  6 25  1  0
  7  8  2  0
  7 11  1  0
  8  9  1  0
  8 12  1  0
  9 10  1  0
  9 26  1  0
 10 11  2  0
 11 27  1  0
 12 13  2  0
 12 28  1  0
 13 29  1  0
 14 15  2  0
 15 16  1  0
 15 18  1  0
 16 17  2  0
 16 30  1  0
 17 31  1  0
 18 19  1  0
 18 20  1  0
 18 21  1  0
M  END
>  <group_name>  (1) 
JNS

>  <molecule_index>  (1) 
00129

>  <conformer_index>  (1) 
07

>  <method>  (1) 
openff-1.3.0

>  <basis>  (1) 
smirnoff

>  <program>  (1) 
openmm

>  <initial_energy>  (1) 
128.24977903549612 kilocalorie / mole

>  <final_energy>  (1) 
116.63461851053879 kilocalorie / mole

$$$$
