JNS-01948-02
     RDKit          3D

 33 34  0  0  0  0  0  0  0  0999 V2000
   -0.7109    1.1393   -0.2328 C   0  0  0  0  0  0  0  0  0  0  0  0
    0.0567   -0.0785   -0.2190 O   0  0  0  0  0  0  0  0  0  0  0  0
    1.4207    0.0648   -0.0907 C   0  0  0  0  0  0  0  0  0  0  0  0
    1.9865    1.2819    0.0274 N   0  0  0  0  0  0  0  0  0  0  0  0
    3.3360    1.3709    0.1577 C   0  0  0  0  0  0  0  0  0  0  0  0
    4.1319    0.2101    0.1648 C   0  0  0  0  0  0  0  0  0  0  0  0
    3.5617   -1.0497    0.0310 C   0  0  0  0  0  0  0  0  0  0  0  0
    4.3978   -2.3062    0.0519 C   0  0  0  0  0  0  0  0  0  0  0  0
    4.5815   -2.8700   -1.3646 C   0  0  2  0  0  0  0  0  0  0  0  0
    5.4239   -4.1592   -1.3890 C   0  0  0  0  0  0  0  0  0  0  0  0
    6.5586   -3.8952   -2.3705 C   0  0  0  0  0  0  0  0  0  0  0  0
    5.9971   -2.8314   -3.1940 N   0  0  0  0  0  0  0  0  0  0  0  0
    5.3086   -1.9059   -2.3019 C   0  0  0  0  0  0  0  0  0  0  0  0
    2.1801   -1.1014   -0.0875 C   0  0  0  0  0  0  0  0  0  0  0  0
    4.0301    2.7340    0.2981 C   0  0  0  0  0  0  0  0  0  0  0  0
    4.9353    2.8964   -0.7124 F   0  0  0  0  0  0  0  0  0  0  0  0
    3.1582    3.7859    0.2597 F   0  0  0  0  0  0  0  0  0  0  0  0
    4.7082    2.7868    1.4829 F   0  0  0  0  0  0  0  0  0  0  0  0
   -1.7735    0.9055   -0.3458 H   0  0  0  0  0  0  0  0  0  0  0  0
   -0.5763    1.6910    0.7034 H   0  0  0  0  0  0  0  0  0  0  0  0
   -0.4073    1.7778   -1.0690 H   0  0  0  0  0  0  0  0  0  0  0  0
    5.2076    0.3103    0.2743 H   0  0  0  0  0  0  0  0  0  0  0  0
    3.9060   -3.0552    0.6810 H   0  0  0  0  0  0  0  0  0  0  0  0
    5.3751   -2.0984    0.4998 H   0  0  0  0  0  0  0  0  0  0  0  0
    3.6011   -3.0974   -1.7968 H   0  0  0  0  0  0  0  0  0  0  0  0
    4.8056   -4.9846   -1.7560 H   0  0  0  0  0  0  0  0  0  0  0  0
    5.8195   -4.4309   -0.4054 H   0  0  0  0  0  0  0  0  0  0  0  0
    6.8175   -4.7843   -2.9550 H   0  0  0  0  0  0  0  0  0  0  0  0
    7.4449   -3.5377   -1.8349 H   0  0  0  0  0  0  0  0  0  0  0  0
    6.6930   -2.3733   -3.7834 H   0  0  0  0  0  0  0  0  0  0  0  0
    6.0322   -1.2969   -1.7492 H   0  0  0  0  0  0  0  0  0  0  0  0
    4.6144   -1.2508   -2.8390 H   0  0  0  0  0  0  0  0  0  0  0  0
    1.6611   -2.0475   -0.1848 H   0  0  0  0  0  0  0  0  0  0  0  0
  1  2  1  0
  1 19  1  0
  1 20  1  0
  1 21  1  0
  2  3  1  0
  3  4  2  0
  3 14  1  0
  4  5  1  0
  5  6  2  0
  5 15  1  0
  6  7  1  0
  6 22  1  0
  7  8  1  0
  7 14  2  0
  8  9  1  0
  8 23  1  0
  8 24  1  0
  9 10  1  0
  9 13  1  0
  9 25  1  6
 10 11  1  0
 10 26  1  0
 10 27  1  0
 11 12  1  0
 11 28  1  0
 11 29  1  0
 12 13  1  0
 12 30  1  0
 13 31  1  0
 13 32  1  0
 14 33  1  0
 15 16  1  0
 15 17  1  0
 15 18  1  0
M  END
>  <group_name>  (1) 
JNS

>  <molecule_index>  (1) 
01948

>  <conformer_index>  (1) 
02

>  <method>  (1) 
openff-1.3.0

>  <basis>  (1) 
smirnoff

>  <program>  (1) 
openmm

>  <initial_energy>  (1) 
50.13156470583119 kilocalorie / mole

>  <final_energy>  (1) 
44.10974749224051 kilocalorie / mole

$$$$
