JNS-02240-08
     RDKit          3D

 51 55  0  0  0  0  0  0  0  0999 V2000
    1.4650    5.4848    4.0615 C   0  0  0  0  0  0  0  0  0  0  0  0
    0.4963    4.5473    3.4132 C   0  0  0  0  0  0  0  0  0  0  0  0
   -0.6857    4.3661    4.0077 N   0  0  0  0  0  0  0  0  0  0  0  0
   -1.5761    3.5236    3.4572 C   0  0  0  0  0  0  0  0  0  0  0  0
   -2.8560    3.3140    4.1999 C   0  0  0  0  0  0  0  0  0  0  0  0
   -3.5304    2.1288    4.1529 N   0  0  0  0  0  0  0  0  0  0  0  0
   -4.6535    2.0650    4.8975 C   0  0  0  0  0  0  0  0  0  0  0  0
   -5.1170    3.1446    5.6746 C   0  0  0  0  0  0  0  0  0  0  0  0
   -4.4731    4.3259    5.7379 N   0  0  0  0  0  0  0  0  0  0  0  0
   -3.3404    4.3857    5.0006 C   0  0  0  0  0  0  0  0  0  0  0  0
   -1.2634    2.8928    2.2360 C   0  0  0  0  0  0  0  0  0  0  0  0
   -2.2211    1.9281    1.5297 C   0  0  0  0  0  0  0  0  0  0  0  0
   -1.8363    1.5449    0.0879 C   0  0  1  0  0  0  0  0  0  0  0  0
   -2.2279    2.5846   -0.9817 C   0  0  0  0  0  0  0  0  0  0  0  0
   -1.4031    3.8803   -0.9156 C   0  0  0  0  0  0  0  0  0  0  0  0
    0.0999    3.5684   -0.8072 C   0  0  0  0  0  0  0  0  0  0  0  0
    0.3846    2.5720    0.3294 C   0  0  2  0  0  0  0  0  0  0  0  0
   -0.3901    1.3568    0.0545 N   0  0  0  0  0  0  0  0  0  0  0  0
    0.1879    0.1331   -0.2590 C   0  0  0  0  0  0  0  0  0  0  0  0
   -0.5189   -0.7752   -0.6884 O   0  0  0  0  0  0  0  0  0  0  0  0
    1.6372   -0.1052   -0.1797 C   0  0  0  0  0  0  0  0  0  0  0  0
    2.3492   -0.4287   -1.3345 C   0  0  0  0  0  0  0  0  0  0  0  0
    3.7204   -0.6486   -1.2739 C   0  0  0  0  0  0  0  0  0  0  0  0
    4.4182   -0.5663   -0.1307 N   0  0  0  0  0  0  0  0  0  0  0  0
    3.7564   -0.2842    1.0285 C   0  0  0  0  0  0  0  0  0  0  0  0
    2.3504   -0.0591    1.0326 C   0  0  0  0  0  0  0  0  0  0  0  0
    1.4799    0.2290    2.5321 Cl  0  0  0  0  0  0  0  0  0  0  0  0
    4.5535   -0.2115    2.3417 C   0  0  0  0  0  0  0  0  0  0  0  0
    4.4186    1.0202    2.9169 F   0  0  0  0  0  0  0  0  0  0  0  0
    4.1258   -1.1669    3.2191 F   0  0  0  0  0  0  0  0  0  0  0  0
    5.8917   -0.4148    2.1510 F   0  0  0  0  0  0  0  0  0  0  0  0
   -0.0211    3.1834    1.6597 C   0  0  0  0  0  0  0  0  0  0  0  0
    0.8514    3.9971    2.2533 N   0  0  0  0  0  0  0  0  0  0  0  0
    2.0660    5.9910    3.3014 H   0  0  0  0  0  0  0  0  0  0  0  0
    0.9297    6.2377    4.6461 H   0  0  0  0  0  0  0  0  0  0  0  0
    2.1271    4.9220    4.7238 H   0  0  0  0  0  0  0  0  0  0  0  0
   -5.2268    1.1431    4.8973 H   0  0  0  0  0  0  0  0  0  0  0  0
   -6.0319    3.0182    6.2453 H   0  0  0  0  0  0  0  0  0  0  0  0
   -2.7914    5.3221    5.0281 H   0  0  0  0  0  0  0  0  0  0  0  0
   -3.2366    2.3361    1.5240 H   0  0  0  0  0  0  0  0  0  0  0  0
   -2.2435    1.0021    2.1141 H   0  0  0  0  0  0  0  0  0  0  0  0
   -2.3684    0.6180   -0.1568 H   0  0  0  0  0  0  0  0  0  0  0  0
   -3.2935    2.8201   -0.9001 H   0  0  0  0  0  0  0  0  0  0  0  0
   -2.0735    2.1302   -1.9659 H   0  0  0  0  0  0  0  0  0  0  0  0
   -1.7228    4.4757   -0.0545 H   0  0  0  0  0  0  0  0  0  0  0  0
   -1.5912    4.4832   -1.8095 H   0  0  0  0  0  0  0  0  0  0  0  0
    0.6572    4.4955   -0.6372 H   0  0  0  0  0  0  0  0  0  0  0  0
    0.4497    3.1422   -1.7530 H   0  0  0  0  0  0  0  0  0  0  0  0
    1.4593    2.3756    0.3612 H   0  0  0  0  0  0  0  0  0  0  0  0
    1.8367   -0.5131   -2.2884 H   0  0  0  0  0  0  0  0  0  0  0  0
    4.2514   -0.8932   -2.1894 H   0  0  0  0  0  0  0  0  0  0  0  0
  1  2  1  0
  1 34  1  0
  1 35  1  0
  1 36  1  0
  2  3  2  0
  2 33  1  0
  3  4  1  0
  4  5  1  0
  4 11  2  0
  5  6  2  0
  5 10  1  0
  6  7  1  0
  7  8  2  0
  7 37  1  0
  8  9  1  0
  8 38  1  0
  9 10  2  0
 10 39  1  0
 11 12  1  0
 11 32  1  0
 12 13  1  0
 12 40  1  0
 12 41  1  0
 13 14  1  0
 13 18  1  0
 13 42  1  6
 14 15  1  0
 14 43  1  0
 14 44  1  0
 15 16  1  0
 15 45  1  0
 15 46  1  0
 16 17  1  0
 16 47  1  0
 16 48  1  0
 17 18  1  0
 17 32  1  0
 17 49  1  1
 18 19  1  0
 19 20  2  0
 19 21  1  0
 21 22  2  0
 21 26  1  0
 22 23  1  0
 22 50  1  0
 23 24  2  0
 23 51  1  0
 24 25  1  0
 25 26  2  0
 25 28  1  0
 26 27  1  0
 28 29  1  0
 28 30  1  0
 28 31  1  0
 32 33  2  0
M  END
>  <group_name>  (1) 
JNS

>  <molecule_index>  (1) 
02240

>  <conformer_index>  (1) 
08

>  <method>  (1) 
openff-1.3.0

>  <basis>  (1) 
smirnoff

>  <program>  (1) 
openmm

>  <initial_energy>  (1) 
129.79749904957018 kilocalorie / mole

>  <final_energy>  (1) 
120.81769784427038 kilocalorie / mole

$$$$
