JNS-01356-00
     RDKit          3D

 33 36  0  0  0  0  0  0  0  0999 V2000
   -1.3774   -3.2010   -1.5593 F   0  0  0  0  0  0  0  0  0  0  0  0
   -0.3434   -2.5726   -0.9260 C   0  0  0  0  0  0  0  0  0  0  0  0
    0.0402   -3.3496    0.1291 F   0  0  0  0  0  0  0  0  0  0  0  0
    0.6892   -2.5119   -1.8164 F   0  0  0  0  0  0  0  0  0  0  0  0
   -0.7558   -1.1828   -0.4247 C   0  0  0  0  0  0  0  0  0  0  0  0
   -2.0000   -0.9121   -0.0679 N   0  0  0  0  0  0  0  0  0  0  0  0
   -2.0248    0.4432    0.2084 C   0  0  0  0  0  0  0  0  0  0  0  0
   -0.7854    1.0172    0.0245 C   0  0  0  0  0  0  0  0  0  0  0  0
   -0.5262    2.3236    0.2260 N   0  0  0  0  0  0  0  0  0  0  0  0
   -1.5604    3.1163    0.6269 C   0  0  0  0  0  0  0  0  0  0  0  0
   -2.8532    2.5728    0.8237 C   0  0  0  0  0  0  0  0  0  0  0  0
   -3.0984    1.2150    0.6139 C   0  0  0  0  0  0  0  0  0  0  0  0
   -1.3502    4.6164    0.8692 C   0  0  0  0  0  0  0  0  0  0  0  0
   -0.0790    5.0279    0.5840 F   0  0  0  0  0  0  0  0  0  0  0  0
   -2.2129    5.3330    0.0899 F   0  0  0  0  0  0  0  0  0  0  0  0
   -1.6150    4.9108    2.1760 F   0  0  0  0  0  0  0  0  0  0  0  0
    0.0481   -0.0221   -0.3465 N   0  0  0  0  0  0  0  0  0  0  0  0
    1.4472    0.0827   -0.4848 C   0  0  0  0  0  0  0  0  0  0  0  0
    2.3150   -0.9020    0.0289 C   0  0  0  0  0  0  0  0  0  0  0  0
    3.6928   -0.7581   -0.1254 C   0  0  0  0  0  0  0  0  0  0  0  0
    4.2364    0.3353   -0.7604 C   0  0  0  0  0  0  0  0  0  0  0  0
    5.6117    0.2094   -0.7637 N   0  0  0  0  0  0  0  0  0  0  0  0
    5.8295   -0.9160   -0.1466 C   0  0  0  0  0  0  0  0  0  0  0  0
    7.0669   -1.4194    0.0685 O   0  0  0  0  0  0  0  0  0  0  0  0
    4.7023   -1.5760    0.2817 O   0  0  0  0  0  0  0  0  0  0  0  0
    3.4088    1.3444   -1.2665 C   0  0  0  0  0  0  0  0  0  0  0  0
    4.1387    2.8829   -2.1428 Br  0  0  0  0  0  0  0  0  0  0  0  0
    2.0189    1.2084   -1.1191 C   0  0  0  0  0  0  0  0  0  0  0  0
   -3.6629    3.2227    1.1427 H   0  0  0  0  0  0  0  0  0  0  0  0
   -4.0782    0.7665    0.7565 H   0  0  0  0  0  0  0  0  0  0  0  0
    1.9510   -1.7691    0.5677 H   0  0  0  0  0  0  0  0  0  0  0  0
    6.9461   -2.2524    0.5398 H   0  0  0  0  0  0  0  0  0  0  0  0
    1.3819    1.9938   -1.5159 H   0  0  0  0  0  0  0  0  0  0  0  0
  1  2  1  0
  2  3  1  0
  2  4  1  0
  2  5  1  0
  5  6  2  0
  5 17  1  0
  6  7  1  0
  7  8  2  0
  7 12  1  0
  8  9  1  0
  8 17  1  0
  9 10  2  0
 10 11  1  0
 10 13  1  0
 11 12  2  0
 11 29  1  0
 12 30  1  0
 13 14  1  0
 13 15  1  0
 13 16  1  0
 17 18  1  0
 18 19  2  0
 18 28  1  0
 19 20  1  0
 19 31  1  0
 20 21  2  0
 20 25  1  0
 21 22  1  0
 21 26  1  0
 22 23  2  0
 23 24  1  0
 23 25  1  0
 24 32  1  0
 26 27  1  0
 26 28  2  0
 28 33  1  0
M  END
>  <group_name>  (1) 
JNS

>  <molecule_index>  (1) 
01356

>  <conformer_index>  (1) 
00

>  <method>  (1) 
openff-1.3.0

>  <basis>  (1) 
smirnoff

>  <program>  (1) 
openmm

>  <initial_energy>  (1) 
132.77387882027944 kilocalorie / mole

>  <final_energy>  (1) 
120.54272097092894 kilocalorie / mole

$$$$
