JNS-00617-04
     RDKit          3D

 44 48  0  0  0  0  0  0  0  0999 V2000
   -2.5384   -4.4837   -2.0808 F   0  0  0  0  0  0  0  0  0  0  0  0
   -1.8605   -4.4115   -0.8971 C   0  0  0  0  0  0  0  0  0  0  0  0
   -0.5876   -4.8648   -1.1055 F   0  0  0  0  0  0  0  0  0  0  0  0
   -2.4660   -5.2599   -0.0135 F   0  0  0  0  0  0  0  0  0  0  0  0
   -1.9067   -2.9777   -0.3578 C   0  0  0  0  0  0  0  0  0  0  0  0
   -0.7595   -2.2585   -0.2019 N   0  0  0  0  0  0  0  0  0  0  0  0
   -0.8693   -1.0068    0.2843 C   0  0  0  0  0  0  0  0  0  0  0  0
    0.1007   -0.0703    0.5297 C   0  0  0  0  0  0  0  0  0  0  0  0
   -0.6010    1.0335    1.0283 N   0  0  0  0  0  0  0  0  0  0  0  0
    0.0012    2.2072    1.6744 C   0  0  0  0  0  0  0  0  0  0  0  0
   -0.1665    3.4716    0.8200 C   0  0  0  0  0  0  0  0  0  0  0  0
   -1.5619    4.0985    0.8160 C   0  0  0  0  0  0  0  0  0  0  0  0
   -0.9738    5.4206    1.2912 C   0  0  0  0  0  0  0  0  0  0  0  0
    0.3888    4.7551    1.4361 C   0  0  0  0  0  0  0  0  0  0  0  0
   -1.9394    0.7928    1.0810 N   0  0  0  0  0  0  0  0  0  0  0  0
   -2.0777   -0.4241    0.6308 C   0  0  0  0  0  0  0  0  0  0  0  0
   -3.2611   -1.1274    0.4861 C   0  0  0  0  0  0  0  0  0  0  0  0
   -3.1638   -2.4237   -0.0171 C   0  0  0  0  0  0  0  0  0  0  0  0
    1.5532   -0.2265    0.3211 C   0  0  0  0  0  0  0  0  0  0  0  0
    2.1794   -1.4697    0.5584 C   0  0  0  0  0  0  0  0  0  0  0  0
    3.5603   -1.6342    0.3692 C   0  0  0  0  0  0  0  0  0  0  0  0
    4.3145   -0.5437   -0.0611 C   0  0  0  0  0  0  0  0  0  0  0  0
    5.6423   -0.3414   -0.3469 N   0  0  0  0  0  0  0  0  0  0  0  0
    5.7724    0.9701   -0.7446 C   0  0  0  0  0  0  0  0  0  0  0  0
    6.8982    1.5991   -1.1207 O   0  0  0  0  0  0  0  0  0  0  0  0
    4.6458    1.6176   -0.7317 N   0  0  0  0  0  0  0  0  0  0  0  0
    3.7147    0.6760   -0.3059 C   0  0  0  0  0  0  0  0  0  0  0  0
    2.3448    0.8486   -0.1302 C   0  0  0  0  0  0  0  0  0  0  0  0
   -0.4726    2.3547    2.6495 H   0  0  0  0  0  0  0  0  0  0  0  0
    1.0617    2.0257    1.8668 H   0  0  0  0  0  0  0  0  0  0  0  0
    0.2084    3.3218   -0.1981 H   0  0  0  0  0  0  0  0  0  0  0  0
   -2.0281    4.1432   -0.1738 H   0  0  0  0  0  0  0  0  0  0  0  0
   -2.2591    3.6517    1.5330 H   0  0  0  0  0  0  0  0  0  0  0  0
   -1.3972    5.7878    2.2317 H   0  0  0  0  0  0  0  0  0  0  0  0
   -0.9984    6.2090    0.5316 H   0  0  0  0  0  0  0  0  0  0  0  0
    0.7119    4.6500    2.4773 H   0  0  0  0  0  0  0  0  0  0  0  0
    1.1821    5.2267    0.8467 H   0  0  0  0  0  0  0  0  0  0  0  0
   -4.2150   -0.6814    0.7541 H   0  0  0  0  0  0  0  0  0  0  0  0
   -4.0630   -3.0169   -0.1497 H   0  0  0  0  0  0  0  0  0  0  0  0
    1.5904   -2.3187    0.8951 H   0  0  0  0  0  0  0  0  0  0  0  0
    4.0281   -2.5966    0.5529 H   0  0  0  0  0  0  0  0  0  0  0  0
    6.3978   -1.0155   -0.3030 H   0  0  0  0  0  0  0  0  0  0  0  0
    6.6003    2.4955   -1.3370 H   0  0  0  0  0  0  0  0  0  0  0  0
    1.9210    1.8154   -0.3678 H   0  0  0  0  0  0  0  0  0  0  0  0
  1  2  1  0
  2  3  1  0
  2  4  1  0
  2  5  1  0
  5  6  2  0
  5 18  1  0
  6  7  1  0
  7  8  2  0
  7 16  1  0
  8  9  1  0
  8 19  1  0
  9 10  1  0
  9 15  1  0
 10 11  1  0
 10 29  1  0
 10 30  1  0
 11 12  1  0
 11 14  1  0
 11 31  1  0
 12 13  1  0
 12 32  1  0
 12 33  1  0
 13 14  1  0
 13 34  1  0
 13 35  1  0
 14 36  1  0
 14 37  1  0
 15 16  2  0
 16 17  1  0
 17 18  2  0
 17 38  1  0
 18 39  1  0
 19 20  2  0
 19 28  1  0
 20 21  1  0
 20 40  1  0
 21 22  2  0
 21 41  1  0
 22 23  1  0
 22 27  1  0
 23 24  1  0
 23 42  1  0
 24 25  1  0
 24 26  2  0
 25 43  1  0
 26 27  1  0
 27 28  2  0
 28 44  1  0
M  END
>  <group_name>  (1) 
JNS

>  <molecule_index>  (1) 
00617

>  <conformer_index>  (1) 
04

>  <method>  (1) 
openff-1.3.0

>  <basis>  (1) 
smirnoff

>  <program>  (1) 
openmm

>  <initial_energy>  (1) 
112.53472739303942 kilocalorie / mole

>  <final_energy>  (1) 
97.95731906705736 kilocalorie / mole

$$$$
