JNS-01242-09
     RDKit          3D

 41 45  0  0  0  0  0  0  0  0999 V2000
   -1.2491    5.4265    0.0746 F   0  0  0  0  0  0  0  0  0  0  0  0
   -0.9317    4.5059    1.0324 C   0  0  0  0  0  0  0  0  0  0  0  0
   -1.6276    4.8194    2.1653 F   0  0  0  0  0  0  0  0  0  0  0  0
    0.4016    4.6192    1.3087 F   0  0  0  0  0  0  0  0  0  0  0  0
   -1.3304    3.1041    0.5533 C   0  0  0  0  0  0  0  0  0  0  0  0
   -2.6935    2.8534    0.2576 C   0  0  0  0  0  0  0  0  0  0  0  0
   -3.1139    1.5954   -0.1792 C   0  0  0  0  0  0  0  0  0  0  0  0
   -2.1397    0.6226   -0.3066 C   0  0  0  0  0  0  0  0  0  0  0  0
   -2.2806   -0.6982   -0.7006 N   0  0  0  0  0  0  0  0  0  0  0  0
   -1.0712   -1.2114   -0.6433 C   0  0  0  0  0  0  0  0  0  0  0  0
   -0.9344   -2.7079   -0.8747 C   0  0  2  0  0  0  0  0  0  0  0  0
   -0.0927   -3.4387    0.1662 C   0  0  0  0  0  0  0  0  0  0  0  0
    1.2494   -3.6927   -0.5024 C   0  0  0  0  0  0  0  0  0  0  0  0
    1.0807   -3.4393   -1.9069 O   0  0  0  0  0  0  0  0  0  0  0  0
   -0.2741   -3.0654   -2.1950 C   0  0  0  0  0  0  0  0  0  0  0  0
   -0.1268   -0.2406   -0.2605 N   0  0  0  0  0  0  0  0  0  0  0  0
   -0.8269    0.9174   -0.0063 C   0  0  0  0  0  0  0  0  0  0  0  0
   -0.3960    2.1208    0.4166 N   0  0  0  0  0  0  0  0  0  0  0  0
    1.2687   -0.3298   -0.2192 C   0  0  0  0  0  0  0  0  0  0  0  0
    2.0129   -0.6657   -1.3670 C   0  0  0  0  0  0  0  0  0  0  0  0
    3.4138   -0.7401   -1.3176 C   0  0  0  0  0  0  0  0  0  0  0  0
    4.0622   -0.4580   -0.1189 C   0  0  0  0  0  0  0  0  0  0  0  0
    5.4087   -0.4643    0.1700 N   0  0  0  0  0  0  0  0  0  0  0  0
    5.4426   -0.1082    1.4219 C   0  0  0  0  0  0  0  0  0  0  0  0
    6.6558   -0.0240    1.9966 O   0  0  0  0  0  0  0  0  0  0  0  0
    4.2260    0.1326    2.0144 O   0  0  0  0  0  0  0  0  0  0  0  0
    3.3471   -0.0974    1.0007 C   0  0  0  0  0  0  0  0  0  0  0  0
    1.9550   -0.0155    0.9677 C   0  0  0  0  0  0  0  0  0  0  0  0
   -3.4200    3.6522    0.3742 H   0  0  0  0  0  0  0  0  0  0  0  0
   -4.1512    1.3705   -0.4107 H   0  0  0  0  0  0  0  0  0  0  0  0
   -1.9455   -3.1280   -0.8656 H   0  0  0  0  0  0  0  0  0  0  0  0
   -0.5568   -4.4012    0.4047 H   0  0  0  0  0  0  0  0  0  0  0  0
    0.0153   -2.8686    1.0947 H   0  0  0  0  0  0  0  0  0  0  0  0
    2.0139   -3.0295   -0.0872 H   0  0  0  0  0  0  0  0  0  0  0  0
    1.5716   -4.7253   -0.3344 H   0  0  0  0  0  0  0  0  0  0  0  0
   -0.3206   -2.2294   -2.9004 H   0  0  0  0  0  0  0  0  0  0  0  0
   -0.7877   -3.9199   -2.6476 H   0  0  0  0  0  0  0  0  0  0  0  0
    1.5090   -0.8644   -2.3070 H   0  0  0  0  0  0  0  0  0  0  0  0
    3.9967   -1.0084   -2.1927 H   0  0  0  0  0  0  0  0  0  0  0  0
    7.2585   -0.2516    1.2756 H   0  0  0  0  0  0  0  0  0  0  0  0
    1.4155    0.2912    1.8586 H   0  0  0  0  0  0  0  0  0  0  0  0
  1  2  1  0
  2  3  1  0
  2  4  1  0
  2  5  1  0
  5  6  2  0
  5 18  1  0
  6  7  1  0
  6 29  1  0
  7  8  2  0
  7 30  1  0
  8  9  1  0
  8 17  1  0
  9 10  2  0
 10 11  1  0
 10 16  1  0
 11 12  1  0
 11 15  1  0
 11 31  1  6
 12 13  1  0
 12 32  1  0
 12 33  1  0
 13 14  1  0
 13 34  1  0
 13 35  1  0
 14 15  1  0
 15 36  1  0
 15 37  1  0
 16 17  1  0
 16 19  1  0
 17 18  2  0
 19 20  2  0
 19 28  1  0
 20 21  1  0
 20 38  1  0
 21 22  2  0
 21 39  1  0
 22 23  1  0
 22 27  1  0
 23 24  2  0
 24 25  1  0
 24 26  1  0
 25 40  1  0
 26 27  1  0
 27 28  2  0
 28 41  1  0
M  END
>  <group_name>  (1) 
JNS

>  <molecule_index>  (1) 
01242

>  <conformer_index>  (1) 
09

>  <method>  (1) 
openff-1.3.0

>  <basis>  (1) 
smirnoff

>  <program>  (1) 
openmm

>  <initial_energy>  (1) 
99.7870025089384 kilocalorie / mole

>  <final_energy>  (1) 
85.01751381918 kilocalorie / mole

$$$$
