JNS-01002-04
     RDKit          3D

 37 38  0  0  0  0  0  0  0  0999 V2000
   -3.3326   -2.5139    0.3821 C   0  0  0  0  0  0  0  0  0  0  0  0
   -2.2277   -1.5049    0.2740 C   0  0  0  0  0  0  0  0  0  0  0  0
   -2.4793   -0.3438   -0.3498 N   0  0  0  0  0  0  0  0  0  0  0  0
   -1.4846    0.5767   -0.4458 C   0  0  0  0  0  0  0  0  0  0  0  0
   -0.2175    0.3150    0.1017 C   0  0  0  0  0  0  0  0  0  0  0  0
    0.0428   -0.8808    0.7474 C   0  0  0  0  0  0  0  0  0  0  0  0
    1.2756   -1.1979    1.3027 N   0  0  0  0  0  0  0  0  0  0  0  0
    2.4343   -0.2928    1.3469 C   0  0  0  0  0  0  0  0  0  0  0  0
    3.2424   -0.3587    0.0392 C   0  0  2  0  0  0  0  0  0  0  0  0
    3.8622   -1.7489   -0.2226 C   0  0  0  0  0  0  0  0  0  0  0  0
    4.9907   -2.0634    0.7705 C   0  0  0  0  0  0  0  0  0  0  0  0
    6.0330   -0.9440    0.7896 C   0  0  0  0  0  0  0  0  0  0  0  0
    5.3824    0.3478    1.0555 N   0  0  0  0  0  0  0  0  0  0  0  0
    4.3487    0.7039    0.0703 C   0  0  0  0  0  0  0  0  0  0  0  0
   -0.9834   -1.7959    0.8289 C   0  0  0  0  0  0  0  0  0  0  0  0
   -1.7141    1.9203   -1.1552 C   0  0  0  0  0  0  0  0  0  0  0  0
   -0.8265    2.0596   -2.1852 F   0  0  0  0  0  0  0  0  0  0  0  0
   -2.9753    2.0502   -1.6661 F   0  0  0  0  0  0  0  0  0  0  0  0
   -1.5046    2.9492   -0.2806 F   0  0  0  0  0  0  0  0  0  0  0  0
   -3.4907   -2.7846    1.4294 H   0  0  0  0  0  0  0  0  0  0  0  0
   -4.2649   -2.1027   -0.0167 H   0  0  0  0  0  0  0  0  0  0  0  0
   -3.0736   -3.4104   -0.1875 H   0  0  0  0  0  0  0  0  0  0  0  0
    0.5509    1.0709    0.0028 H   0  0  0  0  0  0  0  0  0  0  0  0
    1.3629   -2.0948    1.7746 H   0  0  0  0  0  0  0  0  0  0  0  0
    3.0702   -0.5599    2.1965 H   0  0  0  0  0  0  0  0  0  0  0  0
    2.1015    0.7334    1.5321 H   0  0  0  0  0  0  0  0  0  0  0  0
    2.5665   -0.1212   -0.7877 H   0  0  0  0  0  0  0  0  0  0  0  0
    3.0943   -2.5269   -0.1712 H   0  0  0  0  0  0  0  0  0  0  0  0
    4.2688   -1.7684   -1.2390 H   0  0  0  0  0  0  0  0  0  0  0  0
    5.4723   -3.0063    0.4950 H   0  0  0  0  0  0  0  0  0  0  0  0
    4.5768   -2.1889    1.7753 H   0  0  0  0  0  0  0  0  0  0  0  0
    6.5534   -0.9100   -0.1738 H   0  0  0  0  0  0  0  0  0  0  0  0
    6.7766   -1.1537    1.5657 H   0  0  0  0  0  0  0  0  0  0  0  0
    6.0811    1.0891    1.1221 H   0  0  0  0  0  0  0  0  0  0  0  0
    3.9155    1.6784    0.3204 H   0  0  0  0  0  0  0  0  0  0  0  0
    4.7983    0.7905   -0.9250 H   0  0  0  0  0  0  0  0  0  0  0  0
   -0.8306   -2.7472    1.3231 H   0  0  0  0  0  0  0  0  0  0  0  0
  1  2  1  0
  1 20  1  0
  1 21  1  0
  1 22  1  0
  2  3  2  0
  2 15  1  0
  3  4  1  0
  4  5  2  0
  4 16  1  0
  5  6  1  0
  5 23  1  0
  6  7  1  0
  6 15  2  0
  7  8  1  0
  7 24  1  0
  8  9  1  0
  8 25  1  0
  8 26  1  0
  9 10  1  0
  9 14  1  0
  9 27  1  6
 10 11  1  0
 10 28  1  0
 10 29  1  0
 11 12  1  0
 11 30  1  0
 11 31  1  0
 12 13  1  0
 12 32  1  0
 12 33  1  0
 13 14  1  0
 13 34  1  0
 14 35  1  0
 14 36  1  0
 15 37  1  0
 16 17  1  0
 16 18  1  0
 16 19  1  0
M  END
>  <group_name>  (1) 
JNS

>  <molecule_index>  (1) 
01002

>  <conformer_index>  (1) 
04

>  <method>  (1) 
openff-1.3.0

>  <basis>  (1) 
smirnoff

>  <program>  (1) 
openmm

>  <initial_energy>  (1) 
4.303024975952734 kilocalorie / mole

>  <final_energy>  (1) 
-2.3381244503634653 kilocalorie / mole

$$$$
