JNS-01364-05
     RDKit          3D

 34 37  0  0  0  0  0  0  0  0999 V2000
    0.5027   -2.5431    1.8988 F   0  0  0  0  0  0  0  0  0  0  0  0
   -0.4437   -2.5897    0.9162 C   0  0  0  0  0  0  0  0  0  0  0  0
    0.0307   -3.3562   -0.1087 F   0  0  0  0  0  0  0  0  0  0  0  0
   -1.5330   -3.2204    1.4467 F   0  0  0  0  0  0  0  0  0  0  0  0
   -0.8072   -1.1928    0.3965 C   0  0  0  0  0  0  0  0  0  0  0  0
   -2.0118   -0.9167   -0.0748 N   0  0  0  0  0  0  0  0  0  0  0  0
   -2.0118    0.4426   -0.3309 C   0  0  0  0  0  0  0  0  0  0  0  0
   -0.7979    1.0151   -0.0173 C   0  0  0  0  0  0  0  0  0  0  0  0
   -0.5264    2.3267   -0.1692 N   0  0  0  0  0  0  0  0  0  0  0  0
   -1.5193    3.1231   -0.6571 C   0  0  0  0  0  0  0  0  0  0  0  0
   -2.7840    2.5801   -0.9901 C   0  0  0  0  0  0  0  0  0  0  0  0
   -3.0431    1.2185   -0.8278 C   0  0  0  0  0  0  0  0  0  0  0  0
   -1.2925    4.6280   -0.8494 C   0  0  0  0  0  0  0  0  0  0  0  0
   -0.0611    5.0388   -0.4219 F   0  0  0  0  0  0  0  0  0  0  0  0
   -2.2360    5.3284   -0.1532 F   0  0  0  0  0  0  0  0  0  0  0  0
   -1.4172    4.9465   -2.1712 F   0  0  0  0  0  0  0  0  0  0  0  0
   -0.0019   -0.0304    0.4152 N   0  0  0  0  0  0  0  0  0  0  0  0
    1.3787    0.0710    0.6841 C   0  0  0  0  0  0  0  0  0  0  0  0
    2.2918   -0.9072    0.2371 C   0  0  0  0  0  0  0  0  0  0  0  0
    3.6557   -0.7671    0.5185 C   0  0  0  0  0  0  0  0  0  0  0  0
    4.1275    0.3167    1.2111 C   0  0  0  0  0  0  0  0  0  0  0  0
    5.4982    0.1404    1.3031 N   0  0  0  0  0  0  0  0  0  0  0  0
    5.9018   -1.0113    0.6929 N   0  0  0  0  0  0  0  0  0  0  0  0
    4.8174   -1.5795    0.2102 C   0  0  0  0  0  0  0  0  0  0  0  0
    4.7804   -2.8127   -0.5107 C   0  0  0  0  0  0  0  0  0  0  0  0
    4.7124   -3.8165   -1.1043 N   0  0  0  0  0  0  0  0  0  0  0  0
    3.2578    1.3131    1.6524 C   0  0  0  0  0  0  0  0  0  0  0  0
    1.8870    1.1873    1.3843 C   0  0  0  0  0  0  0  0  0  0  0  0
   -3.5610    3.2329   -1.3771 H   0  0  0  0  0  0  0  0  0  0  0  0
   -4.0019    0.7694   -1.0736 H   0  0  0  0  0  0  0  0  0  0  0  0
    1.9654   -1.7626   -0.3457 H   0  0  0  0  0  0  0  0  0  0  0  0
    6.1285    0.7968    1.7657 H   0  0  0  0  0  0  0  0  0  0  0  0
    3.6298    2.1778    2.1940 H   0  0  0  0  0  0  0  0  0  0  0  0
    1.2148    1.9663    1.7337 H   0  0  0  0  0  0  0  0  0  0  0  0
  1  2  1  0
  2  3  1  0
  2  4  1  0
  2  5  1  0
  5  6  2  0
  5 17  1  0
  6  7  1  0
  7  8  2  0
  7 12  1  0
  8  9  1  0
  8 17  1  0
  9 10  2  0
 10 11  1  0
 10 13  1  0
 11 12  2  0
 11 29  1  0
 12 30  1  0
 13 14  1  0
 13 15  1  0
 13 16  1  0
 17 18  1  0
 18 19  2  0
 18 28  1  0
 19 20  1  0
 19 31  1  0
 20 21  2  0
 20 24  1  0
 21 22  1  0
 21 27  1  0
 22 23  1  0
 22 32  1  0
 23 24  2  0
 24 25  1  0
 25 26  3  0
 27 28  2  0
 27 33  1  0
 28 34  1  0
M  END
>  <group_name>  (1) 
JNS

>  <molecule_index>  (1) 
01364

>  <conformer_index>  (1) 
05

>  <method>  (1) 
openff-1.3.0

>  <basis>  (1) 
smirnoff

>  <program>  (1) 
openmm

>  <initial_energy>  (1) 
206.37182670130366 kilocalorie / mole

>  <final_energy>  (1) 
194.07315621127856 kilocalorie / mole

$$$$
