JNS-02240-07
     RDKit          3D

 51 55  0  0  0  0  0  0  0  0999 V2000
    1.1359    5.9354    3.8180 C   0  0  0  0  0  0  0  0  0  0  0  0
    0.2828    4.8388    3.2636 C   0  0  0  0  0  0  0  0  0  0  0  0
   -0.8534    4.5527    3.9044 N   0  0  0  0  0  0  0  0  0  0  0  0
   -1.6418    3.5719    3.4344 C   0  0  0  0  0  0  0  0  0  0  0  0
   -2.8622    3.2435    4.2278 C   0  0  0  0  0  0  0  0  0  0  0  0
   -3.3527    1.9719    4.2930 N   0  0  0  0  0  0  0  0  0  0  0  0
   -4.4396    1.8058    5.0746 C   0  0  0  0  0  0  0  0  0  0  0  0
   -5.0427    2.8662    5.7796 C   0  0  0  0  0  0  0  0  0  0  0  0
   -4.5792    4.1302    5.7320 N   0  0  0  0  0  0  0  0  0  0  0  0
   -3.4820    4.2945    4.9579 C   0  0  0  0  0  0  0  0  0  0  0  0
   -1.2828    2.9088    2.2457 C   0  0  0  0  0  0  0  0  0  0  0  0
   -2.1598    1.8305    1.5976 C   0  0  0  0  0  0  0  0  0  0  0  0
   -1.8208    1.6266    0.1146 C   0  0  1  0  0  0  0  0  0  0  0  0
   -2.2093    2.8862   -0.7080 C   0  0  0  0  0  0  0  0  0  0  0  0
   -1.0822    3.3575   -1.6395 C   0  0  0  0  0  0  0  0  0  0  0  0
    0.2733    3.4990   -0.9078 C   0  0  0  0  0  0  0  0  0  0  0  0
    0.4091    2.6088    0.3483 C   0  0  2  0  0  0  0  0  0  0  0  0
   -0.3767    1.4009    0.0955 N   0  0  0  0  0  0  0  0  0  0  0  0
    0.1765    0.1519   -0.1533 C   0  0  0  0  0  0  0  0  0  0  0  0
   -0.5496   -0.7621   -0.5356 O   0  0  0  0  0  0  0  0  0  0  0  0
    1.6202   -0.1105   -0.0598 C   0  0  0  0  0  0  0  0  0  0  0  0
    2.3295   -0.4897   -1.1991 C   0  0  0  0  0  0  0  0  0  0  0  0
    3.6953   -0.7369   -1.1242 C   0  0  0  0  0  0  0  0  0  0  0  0
    4.3900   -0.6297    0.0189 N   0  0  0  0  0  0  0  0  0  0  0  0
    3.7297   -0.2923    1.1642 C   0  0  0  0  0  0  0  0  0  0  0  0
    2.3292   -0.0360    1.1533 C   0  0  0  0  0  0  0  0  0  0  0  0
    1.4586    0.3289    2.6362 Cl  0  0  0  0  0  0  0  0  0  0  0  0
    4.5228   -0.1900    2.4778 C   0  0  0  0  0  0  0  0  0  0  0  0
    4.0694   -1.1027    3.3871 F   0  0  0  0  0  0  0  0  0  0  0  0
    4.4131    1.0648    3.0066 F   0  0  0  0  0  0  0  0  0  0  0  0
    5.8568   -0.4301    2.3014 F   0  0  0  0  0  0  0  0  0  0  0  0
   -0.0870    3.2978    1.6190 C   0  0  0  0  0  0  0  0  0  0  0  0
    0.6872    4.2509    2.1382 N   0  0  0  0  0  0  0  0  0  0  0  0
    0.5184    6.6602    4.3552 H   0  0  0  0  0  0  0  0  0  0  0  0
    1.6606    6.4507    3.0092 H   0  0  0  0  0  0  0  0  0  0  0  0
    1.8702    5.5112    4.5070 H   0  0  0  0  0  0  0  0  0  0  0  0
   -4.8702    0.8132    5.1635 H   0  0  0  0  0  0  0  0  0  0  0  0
   -5.9179    2.6544    6.3862 H   0  0  0  0  0  0  0  0  0  0  0  0
   -3.0737    5.2987    4.8955 H   0  0  0  0  0  0  0  0  0  0  0  0
   -2.0109    0.8845    2.1299 H   0  0  0  0  0  0  0  0  0  0  0  0
   -3.2193    2.0927    1.6778 H   0  0  0  0  0  0  0  0  0  0  0  0
   -2.3706    0.7641   -0.2800 H   0  0  0  0  0  0  0  0  0  0  0  0
   -3.1086    2.6716   -1.2935 H   0  0  0  0  0  0  0  0  0  0  0  0
   -2.4625    3.7179   -0.0426 H   0  0  0  0  0  0  0  0  0  0  0  0
   -0.9711    2.6169   -2.4388 H   0  0  0  0  0  0  0  0  0  0  0  0
   -1.3534    4.3070   -2.1117 H   0  0  0  0  0  0  0  0  0  0  0  0
    0.4483    4.5445   -0.6335 H   0  0  0  0  0  0  0  0  0  0  0  0
    1.0603    3.2241   -1.6169 H   0  0  0  0  0  0  0  0  0  0  0  0
    1.4688    2.3899    0.5010 H   0  0  0  0  0  0  0  0  0  0  0  0
    1.8189   -0.5973   -2.1517 H   0  0  0  0  0  0  0  0  0  0  0  0
    4.2246   -1.0253   -2.0278 H   0  0  0  0  0  0  0  0  0  0  0  0
  1  2  1  0
  1 34  1  0
  1 35  1  0
  1 36  1  0
  2  3  2  0
  2 33  1  0
  3  4  1  0
  4  5  1  0
  4 11  2  0
  5  6  2  0
  5 10  1  0
  6  7  1  0
  7  8  2  0
  7 37  1  0
  8  9  1  0
  8 38  1  0
  9 10  2  0
 10 39  1  0
 11 12  1  0
 11 32  1  0
 12 13  1  0
 12 40  1  0
 12 41  1  0
 13 14  1  0
 13 18  1  0
 13 42  1  6
 14 15  1  0
 14 43  1  0
 14 44  1  0
 15 16  1  0
 15 45  1  0
 15 46  1  0
 16 17  1  0
 16 47  1  0
 16 48  1  0
 17 18  1  0
 17 32  1  0
 17 49  1  1
 18 19  1  0
 19 20  2  0
 19 21  1  0
 21 22  2  0
 21 26  1  0
 22 23  1  0
 22 50  1  0
 23 24  2  0
 23 51  1  0
 24 25  1  0
 25 26  2  0
 25 28  1  0
 26 27  1  0
 28 29  1  0
 28 30  1  0
 28 31  1  0
 32 33  2  0
M  END
>  <group_name>  (1) 
JNS

>  <molecule_index>  (1) 
02240

>  <conformer_index>  (1) 
07

>  <method>  (1) 
openff-1.3.0

>  <basis>  (1) 
smirnoff

>  <program>  (1) 
openmm

>  <initial_energy>  (1) 
139.76269481719376 kilocalorie / mole

>  <final_energy>  (1) 
129.4677487677543 kilocalorie / mole

$$$$
