JNS-02466-02
     RDKit          3D

 53 56  0  0  0  0  0  0  0  0999 V2000
   -0.7632    1.1523    0.3709 C   0  0  0  0  0  0  0  0  0  0  0  0
    0.2280    0.0242    0.0538 C   0  0  2  0  0  0  0  0  0  0  0  0
    1.6413    0.5195   -0.0018 N   0  0  0  0  0  0  0  0  0  0  0  0
    2.1485    1.1992    1.2072 C   0  0  0  0  0  0  0  0  0  0  0  0
    2.2275    0.2197    2.3902 C   0  0  0  0  0  0  0  0  0  0  0  0
    2.6271   -1.2126    1.9779 C   0  0  0  0  0  0  0  0  0  0  0  0
    3.3604   -1.2501    0.6247 C   0  0  2  0  0  0  0  0  0  0  0  0
    2.6347   -0.4681   -0.4974 C   0  0  0  0  0  0  0  0  0  0  0  0
    3.6036   -2.6801    0.1883 C   0  0  0  0  0  0  0  0  0  0  0  0
    4.8872   -3.2043    0.0795 C   0  0  0  0  0  0  0  0  0  0  0  0
    5.0953   -4.5334   -0.3393 C   0  0  0  0  0  0  0  0  0  0  0  0
    4.0426   -5.3352   -0.6550 N   0  0  0  0  0  0  0  0  0  0  0  0
    2.7968   -4.8378   -0.5619 C   0  0  0  0  0  0  0  0  0  0  0  0
    1.6421   -5.7372   -0.8941 C   0  0  0  0  0  0  0  0  0  0  0  0
    2.5511   -3.5320   -0.1358 C   0  0  0  0  0  0  0  0  0  0  0  0
    6.5368   -5.0500   -0.4339 C   0  0  0  0  0  0  0  0  0  0  0  0
    7.2470   -4.2761   -1.3075 F   0  0  0  0  0  0  0  0  0  0  0  0
    7.1393   -4.9637    0.7892 F   0  0  0  0  0  0  0  0  0  0  0  0
    6.6163   -6.3473   -0.8559 F   0  0  0  0  0  0  0  0  0  0  0  0
   -0.2208   -0.6609   -1.2352 C   0  0  0  0  0  0  0  0  0  0  0  0
   -0.5978   -1.9549   -1.1721 N   0  0  0  0  0  0  0  0  0  0  0  0
   -0.9332   -2.5776   -2.3154 C   0  0  0  0  0  0  0  0  0  0  0  0
   -0.9421   -1.9218   -3.5760 C   0  0  0  0  0  0  0  0  0  0  0  0
   -1.3289   -2.5497   -4.7461 O   0  0  0  0  0  0  0  0  0  0  0  0
   -1.9812   -3.8162   -4.5436 C   0  0  0  0  0  0  0  0  0  0  0  0
   -1.2765   -4.6277   -3.4566 C   0  0  0  0  0  0  0  0  0  0  0  0
   -1.2498   -3.9155   -2.2062 O   0  0  0  0  0  0  0  0  0  0  0  0
   -0.5404   -0.5940   -3.6377 C   0  0  0  0  0  0  0  0  0  0  0  0
   -0.1698    0.0336   -2.4538 C   0  0  0  0  0  0  0  0  0  0  0  0
   -0.5900    1.5564    1.3714 H   0  0  0  0  0  0  0  0  0  0  0  0
   -0.6737    1.9630   -0.3580 H   0  0  0  0  0  0  0  0  0  0  0  0
   -1.7871    0.7668    0.3462 H   0  0  0  0  0  0  0  0  0  0  0  0
    0.1416   -0.7177    0.8522 H   0  0  0  0  0  0  0  0  0  0  0  0
    1.5316    2.0620    1.4746 H   0  0  0  0  0  0  0  0  0  0  0  0
    3.1505    1.5905    1.0001 H   0  0  0  0  0  0  0  0  0  0  0  0
    1.2536    0.1750    2.8873 H   0  0  0  0  0  0  0  0  0  0  0  0
    2.9437    0.6116    3.1186 H   0  0  0  0  0  0  0  0  0  0  0  0
    3.2541   -1.6602    2.7556 H   0  0  0  0  0  0  0  0  0  0  0  0
    1.7218   -1.8233    1.9136 H   0  0  0  0  0  0  0  0  0  0  0  0
    4.3252   -0.7571    0.7816 H   0  0  0  0  0  0  0  0  0  0  0  0
    2.1821   -1.1610   -1.2110 H   0  0  0  0  0  0  0  0  0  0  0  0
    3.4000    0.0671   -1.0689 H   0  0  0  0  0  0  0  0  0  0  0  0
    5.7477   -2.5880    0.3208 H   0  0  0  0  0  0  0  0  0  0  0  0
    1.8877   -6.7730   -0.6425 H   0  0  0  0  0  0  0  0  0  0  0  0
    1.4248   -5.6747   -1.9633 H   0  0  0  0  0  0  0  0  0  0  0  0
    0.7500   -5.4440   -0.3331 H   0  0  0  0  0  0  0  0  0  0  0  0
    1.5244   -3.1865   -0.0681 H   0  0  0  0  0  0  0  0  0  0  0  0
   -1.9740   -4.3812   -5.4805 H   0  0  0  0  0  0  0  0  0  0  0  0
   -3.0252   -3.6514   -4.2587 H   0  0  0  0  0  0  0  0  0  0  0  0
   -1.7992   -5.5791   -3.3192 H   0  0  0  0  0  0  0  0  0  0  0  0
   -0.2533   -4.8513   -3.7755 H   0  0  0  0  0  0  0  0  0  0  0  0
   -0.5184   -0.0716   -4.5903 H   0  0  0  0  0  0  0  0  0  0  0  0
    0.1732    1.0632   -2.4600 H   0  0  0  0  0  0  0  0  0  0  0  0
  1  2  1  0
  1 30  1  0
  1 31  1  0
  1 32  1  0
  2  3  1  0
  2 20  1  0
  2 33  1  1
  3  4  1  0
  3  8  1  0
  4  5  1  0
  4 34  1  0
  4 35  1  0
  5  6  1  0
  5 36  1  0
  5 37  1  0
  6  7  1  0
  6 38  1  0
  6 39  1  0
  7  8  1  0
  7  9  1  0
  7 40  1  1
  8 41  1  0
  8 42  1  0
  9 10  2  0
  9 15  1  0
 10 11  1  0
 10 43  1  0
 11 12  2  0
 11 16  1  0
 12 13  1  0
 13 14  1  0
 13 15  2  0
 14 44  1  0
 14 45  1  0
 14 46  1  0
 15 47  1  0
 16 17  1  0
 16 18  1  0
 16 19  1  0
 20 21  2  0
 20 29  1  0
 21 22  1  0
 22 23  2  0
 22 27  1  0
 23 24  1  0
 23 28  1  0
 24 25  1  0
 25 26  1  0
 25 48  1  0
 25 49  1  0
 26 27  1  0
 26 50  1  0
 26 51  1  0
 28 29  2  0
 28 52  1  0
 29 53  1  0
M  END
>  <group_name>  (1) 
JNS

>  <molecule_index>  (1) 
02466

>  <conformer_index>  (1) 
02

>  <method>  (1) 
openff-1.3.0

>  <basis>  (1) 
smirnoff

>  <program>  (1) 
openmm

>  <initial_energy>  (1) 
116.48218168999342 kilocalorie / mole

>  <final_energy>  (1) 
108.50847158408439 kilocalorie / mole

$$$$
