JNS-02392-05
     RDKit          3D

 48 51  0  0  0  0  0  0  0  0999 V2000
    0.3498    2.4125   -1.4607 C   0  0  0  0  0  0  0  0  0  0  0  0
    0.4707    1.1465   -0.6677 C   0  0  0  0  0  0  0  0  0  0  0  0
    0.2369    1.1527    0.6882 C   0  0  0  0  0  0  0  0  0  0  0  0
    0.3873   -0.0201    1.3922 C   0  0  0  0  0  0  0  0  0  0  0  0
    0.1603   -0.0419    2.8736 C   0  0  0  0  0  0  0  0  0  0  0  0
    0.7802   -1.1293    0.7813 N   0  0  0  0  0  0  0  0  0  0  0  0
    0.9895   -1.0568   -0.5314 C   0  0  0  0  0  0  0  0  0  0  0  0
    0.8544    0.0361   -1.2805 N   0  0  0  0  0  0  0  0  0  0  0  0
    1.4521   -2.1944   -1.1614 N   0  0  0  0  0  0  0  0  0  0  0  0
    1.2409   -3.5402   -0.6807 C   0  0  0  0  0  0  0  0  0  0  0  0
    1.2927   -3.9729   -2.1776 C   0  0  2  0  0  0  0  0  0  0  0  0
    2.5793   -4.7997   -2.4776 C   0  0  0  0  0  0  0  0  0  0  0  0
    3.4887   -4.1742   -3.5369 C   0  0  0  0  0  0  0  0  0  0  0  0
    3.6683   -2.7694   -3.2005 N   0  0  0  0  0  0  0  0  0  0  0  0
    2.4805   -1.9532   -3.4296 C   0  0  0  0  0  0  0  0  0  0  0  0
    1.3051   -2.4533   -2.5758 C   0  0  2  0  0  0  0  0  0  0  0  0
    4.6599   -2.3743   -2.3119 C   0  0  0  0  0  0  0  0  0  0  0  0
    5.4727   -3.1976   -1.9008 O   0  0  0  0  0  0  0  0  0  0  0  0
    4.7151   -1.0282   -1.7536 C   0  0  0  0  0  0  0  0  0  0  0  0
    4.2949   -0.8444   -0.4353 C   0  0  0  0  0  0  0  0  0  0  0  0
    4.2988    0.4383    0.0872 C   0  0  0  0  0  0  0  0  0  0  0  0
    4.7303    1.4962   -0.7058 C   0  0  0  0  0  0  0  0  0  0  0  0
    5.1640    1.3341   -1.9674 N   0  0  0  0  0  0  0  0  0  0  0  0
    5.1741    0.0817   -2.5101 C   0  0  0  0  0  0  0  0  0  0  0  0
    5.7193   -0.0978   -3.9430 C   0  0  0  0  0  0  0  0  0  0  0  0
    6.3620    1.0207   -4.3954 F   0  0  0  0  0  0  0  0  0  0  0  0
    4.7007   -0.3498   -4.8164 F   0  0  0  0  0  0  0  0  0  0  0  0
    6.6223   -1.1185   -4.0165 F   0  0  0  0  0  0  0  0  0  0  0  0
    0.9543    2.3469   -2.3703 H   0  0  0  0  0  0  0  0  0  0  0  0
   -0.6943    2.5730   -1.7420 H   0  0  0  0  0  0  0  0  0  0  0  0
    0.6995    3.2654   -0.8729 H   0  0  0  0  0  0  0  0  0  0  0  0
   -0.0651    2.0629    1.1915 H   0  0  0  0  0  0  0  0  0  0  0  0
    0.5743    0.8589    3.3343 H   0  0  0  0  0  0  0  0  0  0  0  0
   -0.9118   -0.0920    3.0813 H   0  0  0  0  0  0  0  0  0  0  0  0
    0.6461   -0.9155    3.3183 H   0  0  0  0  0  0  0  0  0  0  0  0
    2.0462   -3.9195   -0.0432 H   0  0  0  0  0  0  0  0  0  0  0  0
    0.2686   -3.7009   -0.2019 H   0  0  0  0  0  0  0  0  0  0  0  0
    0.3864   -4.4842   -2.5142 H   0  0  0  0  0  0  0  0  0  0  0  0
    3.1729   -4.9183   -1.5657 H   0  0  0  0  0  0  0  0  0  0  0  0
    2.2988   -5.8077   -2.7972 H   0  0  0  0  0  0  0  0  0  0  0  0
    3.0291   -4.2647   -4.5264 H   0  0  0  0  0  0  0  0  0  0  0  0
    4.4475   -4.7021   -3.5778 H   0  0  0  0  0  0  0  0  0  0  0  0
    2.2074   -2.0163   -4.4873 H   0  0  0  0  0  0  0  0  0  0  0  0
    2.6498   -0.8939   -3.2171 H   0  0  0  0  0  0  0  0  0  0  0  0
    0.3449   -2.0972   -2.9663 H   0  0  0  0  0  0  0  0  0  0  0  0
    3.9475   -1.6888    0.1581 H   0  0  0  0  0  0  0  0  0  0  0  0
    3.9595    0.6220    1.1008 H   0  0  0  0  0  0  0  0  0  0  0  0
    4.7223    2.4979   -0.2865 H   0  0  0  0  0  0  0  0  0  0  0  0
  1  2  1  0
  1 29  1  0
  1 30  1  0
  1 31  1  0
  2  3  2  0
  2  8  1  0
  3  4  1  0
  3 32  1  0
  4  5  1  0
  4  6  2  0
  5 33  1  0
  5 34  1  0
  5 35  1  0
  6  7  1  0
  7  8  2  0
  7  9  1  0
  9 10  1  0
  9 16  1  0
 10 11  1  0
 10 36  1  0
 10 37  1  0
 11 12  1  0
 11 16  1  0
 11 38  1  6
 12 13  1  0
 12 39  1  0
 12 40  1  0
 13 14  1  0
 13 41  1  0
 13 42  1  0
 14 15  1  0
 14 17  1  0
 15 16  1  0
 15 43  1  0
 15 44  1  0
 16 45  1  6
 17 18  2  0
 17 19  1  0
 19 20  2  0
 19 24  1  0
 20 21  1  0
 20 46  1  0
 21 22  2  0
 21 47  1  0
 22 23  1  0
 22 48  1  0
 23 24  2  0
 24 25  1  0
 25 26  1  0
 25 27  1  0
 25 28  1  0
M  END
>  <group_name>  (1) 
JNS

>  <molecule_index>  (1) 
02392

>  <conformer_index>  (1) 
05

>  <method>  (1) 
openff-1.3.0

>  <basis>  (1) 
smirnoff

>  <program>  (1) 
openmm

>  <initial_energy>  (1) 
-63.26050030682967 kilocalorie / mole

>  <final_energy>  (1) 
-74.93677350379946 kilocalorie / mole

$$$$
