JNS-00690-03
     RDKit          3D

 38 42  0  0  0  0  0  0  0  0999 V2000
   -0.2679   -0.7218   -1.9051 O   0  0  0  0  0  0  0  0  0  0  0  0
   -0.0153   -0.8519   -0.5006 C   0  0  0  0  0  0  0  0  0  0  0  0
   -1.1780   -0.3698    0.3640 C   0  0  0  0  0  0  0  0  0  0  0  0
   -0.9390   -1.8600    0.1744 C   0  0  0  0  0  0  0  0  0  0  0  0
    1.4444   -0.6492   -0.0730 C   0  0  0  0  0  0  0  0  0  0  0  0
    2.3586   -0.6657   -1.0249 N   0  0  0  0  0  0  0  0  0  0  0  0
    3.5417   -0.2971   -0.4039 C   0  0  0  0  0  0  0  0  0  0  0  0
    3.3458   -0.0458    0.9378 C   0  0  0  0  0  0  0  0  0  0  0  0
    4.3114    0.3554    1.7862 N   0  0  0  0  0  0  0  0  0  0  0  0
    5.5643    0.5135    1.2724 C   0  0  0  0  0  0  0  0  0  0  0  0
    5.8211    0.2640   -0.0989 C   0  0  0  0  0  0  0  0  0  0  0  0
    4.7997   -0.1464   -0.9582 C   0  0  0  0  0  0  0  0  0  0  0  0
    6.7265    0.9705    2.1635 C   0  0  0  0  0  0  0  0  0  0  0  0
    6.3451    1.2299    3.4497 F   0  0  0  0  0  0  0  0  0  0  0  0
    7.2805    2.1086    1.6499 F   0  0  0  0  0  0  0  0  0  0  0  0
    7.6927    0.0055    2.1900 F   0  0  0  0  0  0  0  0  0  0  0  0
    2.0139   -0.3074    1.1688 N   0  0  0  0  0  0  0  0  0  0  0  0
    1.4024   -0.2106    2.4241 C   0  0  0  0  0  0  0  0  0  0  0  0
    1.3853    1.0218    3.1002 C   0  0  0  0  0  0  0  0  0  0  0  0
    0.7671    1.1109    4.3512 C   0  0  0  0  0  0  0  0  0  0  0  0
    0.1985    0.0115    4.9393 C   0  0  0  0  0  0  0  0  0  0  0  0
   -0.3077    0.4532    6.1506 N   0  0  0  0  0  0  0  0  0  0  0  0
   -0.0771    1.7848    6.3406 N   0  0  0  0  0  0  0  0  0  0  0  0
    0.5713    2.2033    5.2781 C   0  0  0  0  0  0  0  0  0  0  0  0
    0.2351   -1.2339    4.3102 C   0  0  0  0  0  0  0  0  0  0  0  0
    0.8492   -1.3420    3.0532 C   0  0  0  0  0  0  0  0  0  0  0  0
    0.5941   -0.6856   -2.3659 H   0  0  0  0  0  0  0  0  0  0  0  0
   -0.9675    0.0773    1.3382 H   0  0  0  0  0  0  0  0  0  0  0  0
   -2.0371    0.0673   -0.1545 H   0  0  0  0  0  0  0  0  0  0  0  0
   -1.6428   -2.3984   -0.4683 H   0  0  0  0  0  0  0  0  0  0  0  0
   -0.5578   -2.4468    1.0092 H   0  0  0  0  0  0  0  0  0  0  0  0
    6.8271    0.3972   -0.4858 H   0  0  0  0  0  0  0  0  0  0  0  0
    4.9646   -0.3393   -2.0145 H   0  0  0  0  0  0  0  0  0  0  0  0
    1.8478    1.8974    2.6525 H   0  0  0  0  0  0  0  0  0  0  0  0
   -0.7806   -0.1495    6.8246 H   0  0  0  0  0  0  0  0  0  0  0  0
    0.9091    3.2229    5.1182 H   0  0  0  0  0  0  0  0  0  0  0  0
   -0.1908   -2.1085    4.7922 H   0  0  0  0  0  0  0  0  0  0  0  0
    0.9261   -2.3159    2.5818 H   0  0  0  0  0  0  0  0  0  0  0  0
  1  2  1  0
  1 27  1  0
  2  3  1  0
  2  4  1  0
  2  5  1  0
  3  4  1  0
  3 28  1  0
  3 29  1  0
  4 30  1  0
  4 31  1  0
  5  6  2  0
  5 17  1  0
  6  7  1  0
  7  8  2  0
  7 12  1  0
  8  9  1  0
  8 17  1  0
  9 10  2  0
 10 11  1  0
 10 13  1  0
 11 12  2  0
 11 32  1  0
 12 33  1  0
 13 14  1  0
 13 15  1  0
 13 16  1  0
 17 18  1  0
 18 19  2  0
 18 26  1  0
 19 20  1  0
 19 34  1  0
 20 21  2  0
 20 24  1  0
 21 22  1  0
 21 25  1  0
 22 23  1  0
 22 35  1  0
 23 24  2  0
 24 36  1  0
 25 26  2  0
 25 37  1  0
 26 38  1  0
M  END
>  <group_name>  (1) 
JNS

>  <molecule_index>  (1) 
00690

>  <conformer_index>  (1) 
03

>  <method>  (1) 
openff-1.3.0

>  <basis>  (1) 
smirnoff

>  <program>  (1) 
openmm

>  <initial_energy>  (1) 
198.31229342698742 kilocalorie / mole

>  <final_energy>  (1) 
186.86189664532148 kilocalorie / mole

$$$$
