JNS-01845-01
     RDKit          3D

 36 39  0  0  0  0  0  0  0  0999 V2000
   -0.0347    0.3028   -0.0799 C   0  0  0  0  0  0  0  0  0  0  0  0
    1.4415    0.0027   -0.1468 C   0  0  0  0  0  0  0  0  0  0  0  0
    2.3983    0.9926   -0.2175 C   0  0  0  0  0  0  0  0  0  0  0  0
    3.6857    0.3474   -0.1231 C   0  0  0  0  0  0  0  0  0  0  0  0
    3.4765   -1.0171    0.0178 C   0  0  0  0  0  0  0  0  0  0  0  0
    4.4824   -1.9079    0.1239 N   0  0  0  0  0  0  0  0  0  0  0  0
    5.7587   -1.4323    0.1010 C   0  0  0  0  0  0  0  0  0  0  0  0
    6.0137   -0.0469   -0.0333 C   0  0  0  0  0  0  0  0  0  0  0  0
    4.9687    0.8671   -0.1488 C   0  0  0  0  0  0  0  0  0  0  0  0
    6.9525   -2.3877    0.2298 C   0  0  0  0  0  0  0  0  0  0  0  0
    7.7091   -2.3366   -0.9061 F   0  0  0  0  0  0  0  0  0  0  0  0
    6.5771   -3.6857    0.4372 F   0  0  0  0  0  0  0  0  0  0  0  0
    7.7397   -2.0058    1.2791 F   0  0  0  0  0  0  0  0  0  0  0  0
    2.0915   -1.2408   -0.0093 N   0  0  0  0  0  0  0  0  0  0  0  0
    1.4691   -2.5051    0.0445 C   0  0  0  0  0  0  0  0  0  0  0  0
    1.9899   -3.5340    0.8561 C   0  0  0  0  0  0  0  0  0  0  0  0
    1.3606   -4.7801    0.8953 C   0  0  0  0  0  0  0  0  0  0  0  0
    0.2253   -5.0251    0.1416 C   0  0  0  0  0  0  0  0  0  0  0  0
   -0.1924   -6.3269    0.3587 N   0  0  0  0  0  0  0  0  0  0  0  0
    0.7187   -6.9579    1.1552 C   0  0  0  0  0  0  0  0  0  0  0  0
    0.7169   -8.1731    1.2962 O   0  0  0  0  0  0  0  0  0  0  0  0
    1.7894   -6.0020    1.6661 C   0  0  0  0  0  0  0  0  0  0  0  0
   -0.3069   -4.0355   -0.6888 C   0  0  0  0  0  0  0  0  0  0  0  0
   -1.4059   -4.2795   -1.4477 F   0  0  0  0  0  0  0  0  0  0  0  0
    0.3214   -2.7837   -0.7301 C   0  0  0  0  0  0  0  0  0  0  0  0
   -0.5511   -0.4402    0.5350 H   0  0  0  0  0  0  0  0  0  0  0  0
   -0.4652    0.3049   -1.0853 H   0  0  0  0  0  0  0  0  0  0  0  0
   -0.1993    1.2861    0.3707 H   0  0  0  0  0  0  0  0  0  0  0  0
    2.2180    2.0613   -0.2953 H   0  0  0  0  0  0  0  0  0  0  0  0
    7.0405    0.3062   -0.0478 H   0  0  0  0  0  0  0  0  0  0  0  0
    5.1466    1.9340   -0.2552 H   0  0  0  0  0  0  0  0  0  0  0  0
    2.8769   -3.3718    1.4618 H   0  0  0  0  0  0  0  0  0  0  0  0
   -0.7054   -6.8680   -0.3294 H   0  0  0  0  0  0  0  0  0  0  0  0
    1.7039   -5.8573    2.7452 H   0  0  0  0  0  0  0  0  0  0  0  0
    2.7885   -6.3405    1.3814 H   0  0  0  0  0  0  0  0  0  0  0  0
   -0.0857   -2.0388   -1.4031 H   0  0  0  0  0  0  0  0  0  0  0  0
  1  2  1  0
  1 26  1  0
  1 27  1  0
  1 28  1  0
  2  3  2  0
  2 14  1  0
  3  4  1  0
  3 29  1  0
  4  5  2  0
  4  9  1  0
  5  6  1  0
  5 14  1  0
  6  7  2  0
  7  8  1  0
  7 10  1  0
  8  9  2  0
  8 30  1  0
  9 31  1  0
 10 11  1  0
 10 12  1  0
 10 13  1  0
 14 15  1  0
 15 16  2  0
 15 25  1  0
 16 17  1  0
 16 32  1  0
 17 18  2  0
 17 22  1  0
 18 19  1  0
 18 23  1  0
 19 20  1  0
 19 33  1  0
 20 21  2  0
 20 22  1  0
 22 34  1  0
 22 35  1  0
 23 24  1  0
 23 25  2  0
 25 36  1  0
M  END
>  <group_name>  (1) 
JNS

>  <molecule_index>  (1) 
01845

>  <conformer_index>  (1) 
01

>  <method>  (1) 
openff-1.3.0

>  <basis>  (1) 
smirnoff

>  <program>  (1) 
openmm

>  <initial_energy>  (1) 
111.849449204419 kilocalorie / mole

>  <final_energy>  (1) 
100.63701141668268 kilocalorie / mole

$$$$
