JNS-01155-04
     RDKit          3D

 46 50  0  0  0  0  0  0  0  0999 V2000
   -0.2400    0.3019   -1.0333 F   0  0  0  0  0  0  0  0  0  0  0  0
    0.6405   -0.5299   -1.6637 C   0  0  0  0  0  0  0  0  0  0  0  0
    0.1236   -1.7931   -1.6621 F   0  0  0  0  0  0  0  0  0  0  0  0
    0.7224   -0.1380   -2.9702 F   0  0  0  0  0  0  0  0  0  0  0  0
    2.0101   -0.4585   -0.9768 C   0  0  0  0  0  0  0  0  0  0  0  0
    2.9268    0.4180   -1.3443 N   0  0  0  0  0  0  0  0  0  0  0  0
    4.0799    0.1297   -0.6080 C   0  0  0  0  0  0  0  0  0  0  0  0
    3.8353   -0.9370    0.2306 C   0  0  0  0  0  0  0  0  0  0  0  0
    4.7228   -1.4502    1.0987 N   0  0  0  0  0  0  0  0  0  0  0  0
    5.9538   -0.8837    1.1514 C   0  0  0  0  0  0  0  0  0  0  0  0
    6.2667    0.2104    0.3185 C   0  0  0  0  0  0  0  0  0  0  0  0
    5.3420    0.7349   -0.5751 C   0  0  0  0  0  0  0  0  0  0  0  0
    5.7106    1.8271   -1.3779 N   0  0  0  0  0  0  0  0  0  0  0  0
    6.3716    3.0043   -0.7776 C   0  0  0  0  0  0  0  0  0  0  0  0
    5.4208    4.2110   -0.8368 C   0  0  0  0  0  0  0  0  0  0  0  0
    4.9238    4.4301   -2.1743 O   0  0  0  0  0  0  0  0  0  0  0  0
    4.2039    3.2823   -2.6753 C   0  0  0  0  0  0  0  0  0  0  0  0
    5.1146    2.0482   -2.7128 C   0  0  0  0  0  0  0  0  0  0  0  0
    7.0026   -1.4502    2.1273 C   0  0  0  0  0  0  0  0  0  0  0  0
    8.1843   -0.7631    2.0844 F   0  0  0  0  0  0  0  0  0  0  0  0
    7.2788   -2.7537    1.8255 F   0  0  0  0  0  0  0  0  0  0  0  0
    6.5458   -1.3849    3.4129 F   0  0  0  0  0  0  0  0  0  0  0  0
    2.5168   -1.3055    0.0282 N   0  0  0  0  0  0  0  0  0  0  0  0
    1.8163   -2.2630    0.7917 C   0  0  0  0  0  0  0  0  0  0  0  0
    0.5041   -2.0225    1.2512 C   0  0  0  0  0  0  0  0  0  0  0  0
   -0.1561   -2.9944    2.0091 C   0  0  0  0  0  0  0  0  0  0  0  0
    0.4529   -4.1777    2.3299 C   0  0  0  0  0  0  0  0  0  0  0  0
   -0.4709   -4.8864    3.0798 N   0  0  0  0  0  0  0  0  0  0  0  0
   -1.6334   -4.1897    3.2410 N   0  0  0  0  0  0  0  0  0  0  0  0
   -1.4709   -3.0502    2.6092 C   0  0  0  0  0  0  0  0  0  0  0  0
    1.7548   -4.4444    1.9093 C   0  0  0  0  0  0  0  0  0  0  0  0
    2.4326   -3.4843    1.1438 C   0  0  0  0  0  0  0  0  0  0  0  0
    7.2589    0.6431    0.3488 H   0  0  0  0  0  0  0  0  0  0  0  0
    6.6427    2.8238    0.2669 H   0  0  0  0  0  0  0  0  0  0  0  0
    7.2912    3.2315   -1.3261 H   0  0  0  0  0  0  0  0  0  0  0  0
    4.5773    4.0349   -0.1614 H   0  0  0  0  0  0  0  0  0  0  0  0
    5.9455    5.1053   -0.4883 H   0  0  0  0  0  0  0  0  0  0  0  0
    3.8297    3.4901   -3.6818 H   0  0  0  0  0  0  0  0  0  0  0  0
    3.3407    3.0771   -2.0340 H   0  0  0  0  0  0  0  0  0  0  0  0
    5.9139    2.2155   -3.4414 H   0  0  0  0  0  0  0  0  0  0  0  0
    4.5568    1.1753   -3.0623 H   0  0  0  0  0  0  0  0  0  0  0  0
   -0.0033   -1.0853    1.0505 H   0  0  0  0  0  0  0  0  0  0  0  0
   -0.2965   -5.8136    3.4686 H   0  0  0  0  0  0  0  0  0  0  0  0
   -2.2171   -2.2637    2.5462 H   0  0  0  0  0  0  0  0  0  0  0  0
    2.2426   -5.3785    2.1699 H   0  0  0  0  0  0  0  0  0  0  0  0
    3.4462   -3.6991    0.8169 H   0  0  0  0  0  0  0  0  0  0  0  0
  1  2  1  0
  2  3  1  0
  2  4  1  0
  2  5  1  0
  5  6  2  0
  5 23  1  0
  6  7  1  0
  7  8  2  0
  7 12  1  0
  8  9  1  0
  8 23  1  0
  9 10  2  0
 10 11  1  0
 10 19  1  0
 11 12  2  0
 11 33  1  0
 12 13  1  0
 13 14  1  0
 13 18  1  0
 14 15  1  0
 14 34  1  0
 14 35  1  0
 15 16  1  0
 15 36  1  0
 15 37  1  0
 16 17  1  0
 17 18  1  0
 17 38  1  0
 17 39  1  0
 18 40  1  0
 18 41  1  0
 19 20  1  0
 19 21  1  0
 19 22  1  0
 23 24  1  0
 24 25  2  0
 24 32  1  0
 25 26  1  0
 25 42  1  0
 26 27  2  0
 26 30  1  0
 27 28  1  0
 27 31  1  0
 28 29  1  0
 28 43  1  0
 29 30  2  0
 30 44  1  0
 31 32  2  0
 31 45  1  0
 32 46  1  0
M  END
>  <group_name>  (1) 
JNS

>  <molecule_index>  (1) 
01155

>  <conformer_index>  (1) 
04

>  <method>  (1) 
openff-1.3.0

>  <basis>  (1) 
smirnoff

>  <program>  (1) 
openmm

>  <initial_energy>  (1) 
212.7699434326438 kilocalorie / mole

>  <final_energy>  (1) 
193.93202017524442 kilocalorie / mole

$$$$
