JNS-01155-01
     RDKit          3D

 46 50  0  0  0  0  0  0  0  0999 V2000
   -0.6629    0.8865   -0.2383 F   0  0  0  0  0  0  0  0  0  0  0  0
    0.0865    0.1170   -1.0818 C   0  0  0  0  0  0  0  0  0  0  0  0
   -0.5218   -1.0975   -1.2162 F   0  0  0  0  0  0  0  0  0  0  0  0
    0.0656    0.7078   -2.3135 F   0  0  0  0  0  0  0  0  0  0  0  0
    1.5188   -0.0015   -0.5455 C   0  0  0  0  0  0  0  0  0  0  0  0
    2.4556    0.8725   -0.8640 N   0  0  0  0  0  0  0  0  0  0  0  0
    3.6536    0.4078   -0.3102 C   0  0  0  0  0  0  0  0  0  0  0  0
    3.4162   -0.7791    0.3534 C   0  0  0  0  0  0  0  0  0  0  0  0
    4.3496   -1.5050    0.9893 N   0  0  0  0  0  0  0  0  0  0  0  0
    5.6214   -1.0392    0.9737 C   0  0  0  0  0  0  0  0  0  0  0  0
    5.9342    0.1602    0.3079 C   0  0  0  0  0  0  0  0  0  0  0  0
    4.9637    0.9113   -0.3505 C   0  0  0  0  0  0  0  0  0  0  0  0
    5.3219    2.1070   -1.0073 N   0  0  0  0  0  0  0  0  0  0  0  0
    6.7093    2.3584   -1.4556 C   0  0  0  0  0  0  0  0  0  0  0  0
    6.7218    3.2680   -2.6946 C   0  0  0  0  0  0  0  0  0  0  0  0
    6.0368    4.5258   -2.4958 O   0  0  0  0  0  0  0  0  0  0  0  0
    4.9404    4.5010   -1.5512 C   0  0  0  0  0  0  0  0  0  0  0  0
    4.3005    3.1159   -1.3659 C   0  0  0  0  0  0  0  0  0  0  0  0
    6.7499   -1.8144    1.6733 C   0  0  0  0  0  0  0  0  0  0  0  0
    7.7646   -2.0560    0.7900 F   0  0  0  0  0  0  0  0  0  0  0  0
    7.2556   -1.0699    2.7009 F   0  0  0  0  0  0  0  0  0  0  0  0
    6.3399   -3.0174    2.1768 F   0  0  0  0  0  0  0  0  0  0  0  0
    2.0592   -1.0307    0.2490 N   0  0  0  0  0  0  0  0  0  0  0  0
    1.3685   -2.0591    0.9247 C   0  0  0  0  0  0  0  0  0  0  0  0
    1.9187   -3.3551    1.0048 C   0  0  0  0  0  0  0  0  0  0  0  0
    1.2275   -4.3644    1.6810 C   0  0  0  0  0  0  0  0  0  0  0  0
    0.0208   -4.1202    2.2786 C   0  0  0  0  0  0  0  0  0  0  0  0
   -0.3690   -5.3237    2.8429 N   0  0  0  0  0  0  0  0  0  0  0  0
    0.5495   -6.3085    2.6211 N   0  0  0  0  0  0  0  0  0  0  0  0
    1.5199   -5.7585    1.9276 C   0  0  0  0  0  0  0  0  0  0  0  0
   -0.5479   -2.8481    2.2355 C   0  0  0  0  0  0  0  0  0  0  0  0
    0.1309   -1.8198    1.5640 C   0  0  0  0  0  0  0  0  0  0  0  0
    6.9619    0.4978    0.3417 H   0  0  0  0  0  0  0  0  0  0  0  0
    7.2014    1.4175   -1.7218 H   0  0  0  0  0  0  0  0  0  0  0  0
    7.2806    2.8322   -0.6508 H   0  0  0  0  0  0  0  0  0  0  0  0
    6.2507    2.7373   -3.5279 H   0  0  0  0  0  0  0  0  0  0  0  0
    7.7597    3.4675   -2.9771 H   0  0  0  0  0  0  0  0  0  0  0  0
    5.3080    4.8488   -0.5810 H   0  0  0  0  0  0  0  0  0  0  0  0
    4.1689    5.2035   -1.8799 H   0  0  0  0  0  0  0  0  0  0  0  0
    3.5498    3.1933   -0.5731 H   0  0  0  0  0  0  0  0  0  0  0  0
    3.7936    2.8205   -2.2905 H   0  0  0  0  0  0  0  0  0  0  0  0
    2.8731   -3.5845    0.5392 H   0  0  0  0  0  0  0  0  0  0  0  0
   -1.2360   -5.4536    3.3647 H   0  0  0  0  0  0  0  0  0  0  0  0
    2.4122   -6.2762    1.5881 H   0  0  0  0  0  0  0  0  0  0  0  0
   -1.4986   -2.6517    2.7214 H   0  0  0  0  0  0  0  0  0  0  0  0
   -0.3095   -0.8289    1.5696 H   0  0  0  0  0  0  0  0  0  0  0  0
  1  2  1  0
  2  3  1  0
  2  4  1  0
  2  5  1  0
  5  6  2  0
  5 23  1  0
  6  7  1  0
  7  8  2  0
  7 12  1  0
  8  9  1  0
  8 23  1  0
  9 10  2  0
 10 11  1  0
 10 19  1  0
 11 12  2  0
 11 33  1  0
 12 13  1  0
 13 14  1  0
 13 18  1  0
 14 15  1  0
 14 34  1  0
 14 35  1  0
 15 16  1  0
 15 36  1  0
 15 37  1  0
 16 17  1  0
 17 18  1  0
 17 38  1  0
 17 39  1  0
 18 40  1  0
 18 41  1  0
 19 20  1  0
 19 21  1  0
 19 22  1  0
 23 24  1  0
 24 25  2  0
 24 32  1  0
 25 26  1  0
 25 42  1  0
 26 27  2  0
 26 30  1  0
 27 28  1  0
 27 31  1  0
 28 29  1  0
 28 43  1  0
 29 30  2  0
 30 44  1  0
 31 32  2  0
 31 45  1  0
 32 46  1  0
M  END
>  <group_name>  (1) 
JNS

>  <molecule_index>  (1) 
01155

>  <conformer_index>  (1) 
01

>  <method>  (1) 
openff-1.3.0

>  <basis>  (1) 
smirnoff

>  <program>  (1) 
openmm

>  <initial_energy>  (1) 
213.13591749432834 kilocalorie / mole

>  <final_energy>  (1) 
194.2294247512265 kilocalorie / mole

$$$$
