JNS-01384-05
     RDKit          3D

 36 39  0  0  0  0  0  0  0  0999 V2000
   -0.4543    1.6209    0.1160 C   0  0  0  0  0  0  0  0  0  0  0  0
   -0.0846    0.1811   -0.2548 C   0  0  0  0  0  0  0  0  0  0  0  0
    1.4071   -0.0591   -0.1631 C   0  0  0  0  0  0  0  0  0  0  0  0
    2.2530    0.7408   -0.7720 N   0  0  0  0  0  0  0  0  0  0  0  0
    3.5059    0.3040   -0.3752 C   0  0  0  0  0  0  0  0  0  0  0  0
    3.4193   -0.7754    0.4808 C   0  0  0  0  0  0  0  0  0  0  0  0
    4.4877   -1.3966    1.0171 N   0  0  0  0  0  0  0  0  0  0  0  0
    5.7239   -0.9192    0.6951 C   0  0  0  0  0  0  0  0  0  0  0  0
    5.8624    0.1916   -0.1786 C   0  0  0  0  0  0  0  0  0  0  0  0
    4.7404    0.8168   -0.7256 C   0  0  0  0  0  0  0  0  0  0  0  0
    6.9690   -1.5967    1.2905 C   0  0  0  0  0  0  0  0  0  0  0  0
    7.0211   -2.9104    0.9220 F   0  0  0  0  0  0  0  0  0  0  0  0
    8.1307   -1.0104    0.8711 F   0  0  0  0  0  0  0  0  0  0  0  0
    6.9443   -1.5202    2.6537 F   0  0  0  0  0  0  0  0  0  0  0  0
    2.0684   -1.0412    0.5932 N   0  0  0  0  0  0  0  0  0  0  0  0
    1.5088   -2.1597    1.2389 C   0  0  0  0  0  0  0  0  0  0  0  0
    2.0385   -2.6170    2.4635 C   0  0  0  0  0  0  0  0  0  0  0  0
    1.4756   -3.7270    3.0934 C   0  0  0  0  0  0  0  0  0  0  0  0
    0.4143   -4.3979    2.5319 C   0  0  0  0  0  0  0  0  0  0  0  0
    0.0456   -5.4500    3.3402 N   0  0  0  0  0  0  0  0  0  0  0  0
    0.8864   -5.3681    4.3310 C   0  0  0  0  0  0  0  0  0  0  0  0
    0.7691   -6.2883    5.3048 O   0  0  0  0  0  0  0  0  0  0  0  0
    1.7969   -4.3404    4.2659 O   0  0  0  0  0  0  0  0  0  0  0  0
   -0.1209   -3.9899    1.3149 C   0  0  0  0  0  0  0  0  0  0  0  0
    0.4305   -2.8727    0.6672 C   0  0  0  0  0  0  0  0  0  0  0  0
   -1.5386    1.7567    0.0605 H   0  0  0  0  0  0  0  0  0  0  0  0
   -0.1244    1.8472    1.1350 H   0  0  0  0  0  0  0  0  0  0  0  0
    0.0179    2.3299   -0.5717 H   0  0  0  0  0  0  0  0  0  0  0  0
   -0.4113   -0.0227   -1.2785 H   0  0  0  0  0  0  0  0  0  0  0  0
   -0.6220   -0.4887    0.4193 H   0  0  0  0  0  0  0  0  0  0  0  0
    6.8459    0.5724   -0.4356 H   0  0  0  0  0  0  0  0  0  0  0  0
    4.8117    1.6679   -1.3969 H   0  0  0  0  0  0  0  0  0  0  0  0
    2.8776   -2.1175    2.9379 H   0  0  0  0  0  0  0  0  0  0  0  0
    0.0344   -6.8390    5.0018 H   0  0  0  0  0  0  0  0  0  0  0  0
   -0.9467   -4.5466    0.8834 H   0  0  0  0  0  0  0  0  0  0  0  0
    0.0275   -2.5873   -0.2992 H   0  0  0  0  0  0  0  0  0  0  0  0
  1  2  1  0
  1 26  1  0
  1 27  1  0
  1 28  1  0
  2  3  1  0
  2 29  1  0
  2 30  1  0
  3  4  2  0
  3 15  1  0
  4  5  1  0
  5  6  2  0
  5 10  1  0
  6  7  1  0
  6 15  1  0
  7  8  2  0
  8  9  1  0
  8 11  1  0
  9 10  2  0
  9 31  1  0
 10 32  1  0
 11 12  1  0
 11 13  1  0
 11 14  1  0
 15 16  1  0
 16 17  2  0
 16 25  1  0
 17 18  1  0
 17 33  1  0
 18 19  2  0
 18 23  1  0
 19 20  1  0
 19 24  1  0
 20 21  2  0
 21 22  1  0
 21 23  1  0
 22 34  1  0
 24 25  2  0
 24 35  1  0
 25 36  1  0
M  END
>  <group_name>  (1) 
JNS

>  <molecule_index>  (1) 
01384

>  <conformer_index>  (1) 
05

>  <method>  (1) 
openff-1.3.0

>  <basis>  (1) 
smirnoff

>  <program>  (1) 
openmm

>  <initial_energy>  (1) 
84.27520077232714 kilocalorie / mole

>  <final_energy>  (1) 
70.49307064724007 kilocalorie / mole

$$$$
