JNS-01448-02
     RDKit          3D

 43 47  0  0  0  0  0  0  0  0999 V2000
    0.3852   -0.9063   -3.5387 F   0  0  0  0  0  0  0  0  0  0  0  0
   -0.6445   -1.4033   -2.7933 C   0  0  0  0  0  0  0  0  0  0  0  0
   -0.3282   -2.6722   -2.3999 F   0  0  0  0  0  0  0  0  0  0  0  0
   -1.7269   -1.4808   -3.6232 F   0  0  0  0  0  0  0  0  0  0  0  0
   -0.9474   -0.5350   -1.5651 C   0  0  0  0  0  0  0  0  0  0  0  0
   -2.1659   -0.4519   -1.0565 N   0  0  0  0  0  0  0  0  0  0  0  0
   -2.0903    0.5013   -0.0572 C   0  0  0  0  0  0  0  0  0  0  0  0
   -0.8153    1.0125    0.0583 C   0  0  0  0  0  0  0  0  0  0  0  0
   -0.4666    1.9588    0.9532 N   0  0  0  0  0  0  0  0  0  0  0  0
   -1.4399    2.4319    1.7817 C   0  0  0  0  0  0  0  0  0  0  0  0
   -2.7645    1.9387    1.6970 C   0  0  0  0  0  0  0  0  0  0  0  0
   -3.1041    0.9571    0.7653 C   0  0  0  0  0  0  0  0  0  0  0  0
   -1.1251    3.5166    2.8198 C   0  0  0  0  0  0  0  0  0  0  0  0
    0.1607    3.9724    2.7393 F   0  0  0  0  0  0  0  0  0  0  0  0
   -1.9616    4.5817    2.6420 F   0  0  0  0  0  0  0  0  0  0  0  0
   -1.3291    3.0229    4.0764 F   0  0  0  0  0  0  0  0  0  0  0  0
   -0.0611    0.3265   -0.8775 N   0  0  0  0  0  0  0  0  0  0  0  0
    1.3426    0.4082   -0.9923 C   0  0  0  0  0  0  0  0  0  0  0  0
    1.9928    1.6539   -0.8827 C   0  0  0  0  0  0  0  0  0  0  0  0
    3.3832    1.7215   -0.9888 C   0  0  0  0  0  0  0  0  0  0  0  0
    4.1333    0.5949   -1.1947 C   0  0  0  0  0  0  0  0  0  0  0  0
    5.4500    1.0233   -1.2166 N   0  0  0  0  0  0  0  0  0  0  0  0
    5.5499    2.3747   -1.0533 N   0  0  0  0  0  0  0  0  0  0  0  0
    4.3221    2.8183   -0.9121 C   0  0  0  0  0  0  0  0  0  0  0  0
    3.5358   -0.6659   -1.3022 C   0  0  0  0  0  0  0  0  0  0  0  0
    2.1367   -0.7451   -1.1846 C   0  0  0  0  0  0  0  0  0  0  0  0
    4.3405   -1.8716   -1.5200 C   0  0  0  0  0  0  0  0  0  0  0  0
    5.3326   -1.9001   -2.5144 C   0  0  0  0  0  0  0  0  0  0  0  0
    6.1020   -3.0510   -2.7212 C   0  0  0  0  0  0  0  0  0  0  0  0
    5.8847   -4.1879   -1.9369 C   0  0  0  0  0  0  0  0  0  0  0  0
    4.8950   -4.1736   -0.9494 C   0  0  0  0  0  0  0  0  0  0  0  0
    4.1260   -3.0221   -0.7443 C   0  0  0  0  0  0  0  0  0  0  0  0
   -3.5248    2.3304    2.3666 H   0  0  0  0  0  0  0  0  0  0  0  0
   -4.1106    0.5574    0.6735 H   0  0  0  0  0  0  0  0  0  0  0  0
    1.4270    2.5673   -0.7214 H   0  0  0  0  0  0  0  0  0  0  0  0
    6.2434    0.3853   -1.2935 H   0  0  0  0  0  0  0  0  0  0  0  0
    4.0516    3.8587   -0.7576 H   0  0  0  0  0  0  0  0  0  0  0  0
    1.6809   -1.7267   -1.2383 H   0  0  0  0  0  0  0  0  0  0  0  0
    5.4922   -1.0328   -3.1486 H   0  0  0  0  0  0  0  0  0  0  0  0
    6.8625   -3.0648   -3.4970 H   0  0  0  0  0  0  0  0  0  0  0  0
    6.4801   -5.0825   -2.0975 H   0  0  0  0  0  0  0  0  0  0  0  0
    4.7233   -5.0564   -0.3397 H   0  0  0  0  0  0  0  0  0  0  0  0
    3.3676   -3.0203    0.0333 H   0  0  0  0  0  0  0  0  0  0  0  0
  1  2  1  0
  2  3  1  0
  2  4  1  0
  2  5  1  0
  5  6  2  0
  5 17  1  0
  6  7  1  0
  7  8  2  0
  7 12  1  0
  8  9  1  0
  8 17  1  0
  9 10  2  0
 10 11  1  0
 10 13  1  0
 11 12  2  0
 11 33  1  0
 12 34  1  0
 13 14  1  0
 13 15  1  0
 13 16  1  0
 17 18  1  0
 18 19  2  0
 18 26  1  0
 19 20  1  0
 19 35  1  0
 20 21  2  0
 20 24  1  0
 21 22  1  0
 21 25  1  0
 22 23  1  0
 22 36  1  0
 23 24  2  0
 24 37  1  0
 25 26  2  0
 25 27  1  0
 26 38  1  0
 27 28  2  0
 27 32  1  0
 28 29  1  0
 28 39  1  0
 29 30  2  0
 29 40  1  0
 30 31  1  0
 30 41  1  0
 31 32  2  0
 31 42  1  0
 32 43  1  0
M  END
>  <group_name>  (1) 
JNS

>  <molecule_index>  (1) 
01448

>  <conformer_index>  (1) 
02

>  <method>  (1) 
openff-1.3.0

>  <basis>  (1) 
smirnoff

>  <program>  (1) 
openmm

>  <initial_energy>  (1) 
220.73599129250533 kilocalorie / mole

>  <final_energy>  (1) 
206.63985186726308 kilocalorie / mole

$$$$
