JNS-01948-05
     RDKit          3D

 33 34  0  0  0  0  0  0  0  0999 V2000
   -0.7677    0.5300    0.0973 C   0  0  0  0  0  0  0  0  0  0  0  0
    0.2072   -0.5288    0.1298 O   0  0  0  0  0  0  0  0  0  0  0  0
    1.5279   -0.1389    0.0893 C   0  0  0  0  0  0  0  0  0  0  0  0
    1.8697    1.1623    0.0294 N   0  0  0  0  0  0  0  0  0  0  0  0
    3.1856    1.5008   -0.0048 C   0  0  0  0  0  0  0  0  0  0  0  0
    4.1787    0.4989    0.0194 C   0  0  0  0  0  0  0  0  0  0  0  0
    3.8371   -0.8470    0.0696 C   0  0  0  0  0  0  0  0  0  0  0  0
    4.8922   -1.9265    0.1135 C   0  0  0  0  0  0  0  0  0  0  0  0
    5.5312   -2.1356   -1.2672 C   0  0  2  0  0  0  0  0  0  0  0  0
    4.5541   -2.6440   -2.3446 C   0  0  0  0  0  0  0  0  0  0  0  0
    5.2521   -3.8197   -3.0195 C   0  0  0  0  0  0  0  0  0  0  0  0
    6.6422   -3.6309   -2.6192 N   0  0  0  0  0  0  0  0  0  0  0  0
    6.6453   -3.1767   -1.2341 C   0  0  0  0  0  0  0  0  0  0  0  0
    2.4836   -1.1489    0.1147 C   0  0  0  0  0  0  0  0  0  0  0  0
    3.5843    2.9867   -0.0688 C   0  0  0  0  0  0  0  0  0  0  0  0
    4.9397    3.1640   -0.1067 F   0  0  0  0  0  0  0  0  0  0  0  0
    3.1202    3.6524    1.0299 F   0  0  0  0  0  0  0  0  0  0  0  0
    3.0679    3.5727   -1.1892 F   0  0  0  0  0  0  0  0  0  0  0  0
   -0.6440    1.1952    0.9582 H   0  0  0  0  0  0  0  0  0  0  0  0
   -0.6704    1.1163   -0.8224 H   0  0  0  0  0  0  0  0  0  0  0  0
   -1.7756    0.1062    0.1310 H   0  0  0  0  0  0  0  0  0  0  0  0
    5.2294    0.7696   -0.0061 H   0  0  0  0  0  0  0  0  0  0  0  0
    5.6660   -1.6411    0.8336 H   0  0  0  0  0  0  0  0  0  0  0  0
    4.4527   -2.8654    0.4658 H   0  0  0  0  0  0  0  0  0  0  0  0
    5.9636   -1.1917   -1.6168 H   0  0  0  0  0  0  0  0  0  0  0  0
    3.5949   -2.9655   -1.9283 H   0  0  0  0  0  0  0  0  0  0  0  0
    4.3699   -1.8475   -3.0725 H   0  0  0  0  0  0  0  0  0  0  0  0
    5.1277   -3.8070   -4.1075 H   0  0  0  0  0  0  0  0  0  0  0  0
    4.8650   -4.7631   -2.6194 H   0  0  0  0  0  0  0  0  0  0  0  0
    7.2165   -4.4606   -2.7718 H   0  0  0  0  0  0  0  0  0  0  0  0
    6.3915   -3.9995   -0.5565 H   0  0  0  0  0  0  0  0  0  0  0  0
    7.6075   -2.7429   -0.9421 H   0  0  0  0  0  0  0  0  0  0  0  0
    2.1365   -2.1737    0.1665 H   0  0  0  0  0  0  0  0  0  0  0  0
  1  2  1  0
  1 19  1  0
  1 20  1  0
  1 21  1  0
  2  3  1  0
  3  4  2  0
  3 14  1  0
  4  5  1  0
  5  6  2  0
  5 15  1  0
  6  7  1  0
  6 22  1  0
  7  8  1  0
  7 14  2  0
  8  9  1  0
  8 23  1  0
  8 24  1  0
  9 10  1  0
  9 13  1  0
  9 25  1  6
 10 11  1  0
 10 26  1  0
 10 27  1  0
 11 12  1  0
 11 28  1  0
 11 29  1  0
 12 13  1  0
 12 30  1  0
 13 31  1  0
 13 32  1  0
 14 33  1  0
 15 16  1  0
 15 17  1  0
 15 18  1  0
M  END
>  <group_name>  (1) 
JNS

>  <molecule_index>  (1) 
01948

>  <conformer_index>  (1) 
05

>  <method>  (1) 
openff-1.3.0

>  <basis>  (1) 
smirnoff

>  <program>  (1) 
openmm

>  <initial_energy>  (1) 
50.470249189382734 kilocalorie / mole

>  <final_energy>  (1) 
45.108367231653986 kilocalorie / mole

$$$$
