JNS-01565-06
     RDKit          3D

 41 44  0  0  0  0  0  0  0  0999 V2000
   -0.1070   -1.2810    2.1790 C   0  0  0  0  0  0  0  0  0  0  0  0
    0.0102   -0.6214    0.7996 C   0  0  0  0  0  0  0  0  0  0  0  0
   -0.6001   -1.5096   -0.2914 C   0  0  0  0  0  0  0  0  0  0  0  0
    1.4507   -0.2267    0.4768 C   0  0  0  0  0  0  0  0  0  0  0  0
    2.5349   -1.0780    0.2632 C   0  0  0  0  0  0  0  0  0  0  0  0
    2.6593   -2.9900    0.4034 Br  0  0  0  0  0  0  0  0  0  0  0  0
    3.6530   -0.2542   -0.1451 C   0  0  0  0  0  0  0  0  0  0  0  0
    3.2314    1.0616   -0.1653 C   0  0  0  0  0  0  0  0  0  0  0  0
    4.0264    2.0969   -0.5015 N   0  0  0  0  0  0  0  0  0  0  0  0
    5.3142    1.8192   -0.8466 C   0  0  0  0  0  0  0  0  0  0  0  0
    5.7913    0.4877   -0.8455 C   0  0  0  0  0  0  0  0  0  0  0  0
    4.9584   -0.5721   -0.4910 C   0  0  0  0  0  0  0  0  0  0  0  0
    6.2758    2.9435   -1.2529 C   0  0  0  0  0  0  0  0  0  0  0  0
    6.7884    2.6879   -2.4931 F   0  0  0  0  0  0  0  0  0  0  0  0
    5.6735    4.1700   -1.2913 F   0  0  0  0  0  0  0  0  0  0  0  0
    7.3151    3.0036   -0.3691 F   0  0  0  0  0  0  0  0  0  0  0  0
    1.8963    1.0963    0.2507 N   0  0  0  0  0  0  0  0  0  0  0  0
    1.1872    2.2873    0.5166 C   0  0  0  0  0  0  0  0  0  0  0  0
    1.2530    3.3675   -0.3749 C   0  0  0  0  0  0  0  0  0  0  0  0
    0.5436    4.5126   -0.0404 C   0  0  0  0  0  0  0  0  0  0  0  0
   -0.1776    4.5448    1.1343 C   0  0  0  0  0  0  0  0  0  0  0  0
   -0.8016    5.7397    1.3081 N   0  0  0  0  0  0  0  0  0  0  0  0
   -0.3789    6.5652    0.3123 C   0  0  0  0  0  0  0  0  0  0  0  0
   -0.5217    7.7758    0.3938 O   0  0  0  0  0  0  0  0  0  0  0  0
    0.4530    5.8414   -0.7444 C   0  0  0  0  0  0  0  0  0  0  0  0
   -0.2478    3.5672    2.0289 N   0  0  0  0  0  0  0  0  0  0  0  0
    0.4437    2.4527    1.7096 C   0  0  0  0  0  0  0  0  0  0  0  0
    0.3161   -0.6307    2.9503 H   0  0  0  0  0  0  0  0  0  0  0  0
   -1.1585   -1.4635    2.4213 H   0  0  0  0  0  0  0  0  0  0  0  0
    0.4190   -2.2380    2.2098 H   0  0  0  0  0  0  0  0  0  0  0  0
   -0.6072    0.2792    0.8143 H   0  0  0  0  0  0  0  0  0  0  0  0
   -0.1154   -2.4867   -0.3386 H   0  0  0  0  0  0  0  0  0  0  0  0
   -1.6637   -1.6724   -0.0916 H   0  0  0  0  0  0  0  0  0  0  0  0
   -0.5042   -1.0241   -1.2676 H   0  0  0  0  0  0  0  0  0  0  0  0
    6.8222    0.2905   -1.1247 H   0  0  0  0  0  0  0  0  0  0  0  0
    5.3130   -1.5996   -0.4853 H   0  0  0  0  0  0  0  0  0  0  0  0
    1.8371    3.3198   -1.2915 H   0  0  0  0  0  0  0  0  0  0  0  0
   -0.9207    6.1131    2.2394 H   0  0  0  0  0  0  0  0  0  0  0  0
   -0.0880    5.7733   -1.6914 H   0  0  0  0  0  0  0  0  0  0  0  0
    1.4301    6.3153   -0.8708 H   0  0  0  0  0  0  0  0  0  0  0  0
    0.4305    1.6437    2.4325 H   0  0  0  0  0  0  0  0  0  0  0  0
  1  2  1  0
  1 28  1  0
  1 29  1  0
  1 30  1  0
  2  3  1  0
  2  4  1  0
  2 31  1  0
  3 32  1  0
  3 33  1  0
  3 34  1  0
  4  5  2  0
  4 17  1  0
  5  6  1  0
  5  7  1  0
  7  8  2  0
  7 12  1  0
  8  9  1  0
  8 17  1  0
  9 10  2  0
 10 11  1  0
 10 13  1  0
 11 12  2  0
 11 35  1  0
 12 36  1  0
 13 14  1  0
 13 15  1  0
 13 16  1  0
 17 18  1  0
 18 19  2  0
 18 27  1  0
 19 20  1  0
 19 37  1  0
 20 21  2  0
 20 25  1  0
 21 22  1  0
 21 26  1  0
 22 23  1  0
 22 38  1  0
 23 24  2  0
 23 25  1  0
 25 39  1  0
 25 40  1  0
 26 27  2  0
 27 41  1  0
M  END
>  <group_name>  (1) 
JNS

>  <molecule_index>  (1) 
01565

>  <conformer_index>  (1) 
06

>  <method>  (1) 
openff-1.3.0

>  <basis>  (1) 
smirnoff

>  <program>  (1) 
openmm

>  <initial_energy>  (1) 
57.93023520933202 kilocalorie / mole

>  <final_energy>  (1) 
46.662285637140954 kilocalorie / mole

$$$$
