JNS-01948-04
     RDKit          3D

 33 34  0  0  0  0  0  0  0  0999 V2000
   -0.6632    1.1885   -0.7505 C   0  0  0  0  0  0  0  0  0  0  0  0
    0.3660    0.5551   -1.5328 O   0  0  0  0  0  0  0  0  0  0  0  0
    1.6152    0.4926   -0.9555 C   0  0  0  0  0  0  0  0  0  0  0  0
    1.8423    0.9960    0.2732 N   0  0  0  0  0  0  0  0  0  0  0  0
    3.0936    0.9152    0.7967 C   0  0  0  0  0  0  0  0  0  0  0  0
    4.1356    0.3105    0.0691 C   0  0  0  0  0  0  0  0  0  0  0  0
    3.9108   -0.2259   -1.1927 C   0  0  0  0  0  0  0  0  0  0  0  0
    5.0192   -0.8643   -1.9951 C   0  0  0  0  0  0  0  0  0  0  0  0
    4.9005   -2.3958   -1.9849 C   0  0  2  0  0  0  0  0  0  0  0  0
    5.0925   -3.0336   -0.5959 C   0  0  0  0  0  0  0  0  0  0  0  0
    6.1785   -4.0862   -0.7771 C   0  0  0  0  0  0  0  0  0  0  0  0
    6.1173   -4.3539   -2.2100 N   0  0  0  0  0  0  0  0  0  0  0  0
    5.9659   -3.0552   -2.8568 C   0  0  0  0  0  0  0  0  0  0  0  0
    2.6239   -0.1122   -1.6995 C   0  0  0  0  0  0  0  0  0  0  0  0
    3.4061    1.4767    2.1920 C   0  0  0  0  0  0  0  0  0  0  0  0
    4.3703    2.4398    2.0969 F   0  0  0  0  0  0  0  0  0  0  0  0
    2.3149    2.0266    2.8045 F   0  0  0  0  0  0  0  0  0  0  0  0
    3.8845    0.4792    2.9938 F   0  0  0  0  0  0  0  0  0  0  0  0
   -0.3975    2.2281   -0.5319 H   0  0  0  0  0  0  0  0  0  0  0  0
   -1.6059    1.1831   -1.3054 H   0  0  0  0  0  0  0  0  0  0  0  0
   -0.8151    0.6541    0.1931 H   0  0  0  0  0  0  0  0  0  0  0  0
    5.1267    0.2631    0.5101 H   0  0  0  0  0  0  0  0  0  0  0  0
    5.9931   -0.5639   -1.5948 H   0  0  0  0  0  0  0  0  0  0  0  0
    4.9682   -0.5013   -3.0267 H   0  0  0  0  0  0  0  0  0  0  0  0
    3.9160   -2.6872   -2.3664 H   0  0  0  0  0  0  0  0  0  0  0  0
    5.3903   -2.3116    0.1701 H   0  0  0  0  0  0  0  0  0  0  0  0
    4.1575   -3.5085   -0.2823 H   0  0  0  0  0  0  0  0  0  0  0  0
    7.1559   -3.6672   -0.5132 H   0  0  0  0  0  0  0  0  0  0  0  0
    5.9960   -4.9824   -0.1748 H   0  0  0  0  0  0  0  0  0  0  0  0
    5.2945   -4.9238   -2.4076 H   0  0  0  0  0  0  0  0  0  0  0  0
    5.6495   -3.1461   -3.9013 H   0  0  0  0  0  0  0  0  0  0  0  0
    6.9076   -2.4966   -2.8118 H   0  0  0  0  0  0  0  0  0  0  0  0
    2.3721   -0.4932   -2.6819 H   0  0  0  0  0  0  0  0  0  0  0  0
  1  2  1  0
  1 19  1  0
  1 20  1  0
  1 21  1  0
  2  3  1  0
  3  4  2  0
  3 14  1  0
  4  5  1  0
  5  6  2  0
  5 15  1  0
  6  7  1  0
  6 22  1  0
  7  8  1  0
  7 14  2  0
  8  9  1  0
  8 23  1  0
  8 24  1  0
  9 10  1  0
  9 13  1  0
  9 25  1  6
 10 11  1  0
 10 26  1  0
 10 27  1  0
 11 12  1  0
 11 28  1  0
 11 29  1  0
 12 13  1  0
 12 30  1  0
 13 31  1  0
 13 32  1  0
 14 33  1  0
 15 16  1  0
 15 17  1  0
 15 18  1  0
M  END
>  <group_name>  (1) 
JNS

>  <molecule_index>  (1) 
01948

>  <conformer_index>  (1) 
04

>  <method>  (1) 
openff-1.3.0

>  <basis>  (1) 
smirnoff

>  <program>  (1) 
openmm

>  <initial_energy>  (1) 
53.721799612543386 kilocalorie / mole

>  <final_energy>  (1) 
44.16373622554239 kilocalorie / mole

$$$$
