JNS-01558-06
     RDKit          3D

 42 46  0  0  0  0  0  0  0  0999 V2000
   -0.4787    0.6177   -0.0697 F   0  0  0  0  0  0  0  0  0  0  0  0
    0.0813   -0.6259    0.0127 C   0  0  0  0  0  0  0  0  0  0  0  0
   -0.2870   -1.3284   -1.0992 F   0  0  0  0  0  0  0  0  0  0  0  0
   -0.4466   -1.2508    1.1082 F   0  0  0  0  0  0  0  0  0  0  0  0
    1.6080   -0.5065    0.0696 C   0  0  0  0  0  0  0  0  0  0  0  0
    2.3085   -1.0628    1.0980 N   0  0  0  0  0  0  0  0  0  0  0  0
    3.6473   -0.9094    1.0957 C   0  0  0  0  0  0  0  0  0  0  0  0
    4.5852   -1.3828    1.9748 C   0  0  0  0  0  0  0  0  0  0  0  0
    5.8094   -0.9079    1.4773 N   0  0  0  0  0  0  0  0  0  0  0  0
    5.6281   -0.2411    0.3004 N   0  0  0  0  0  0  0  0  0  0  0  0
    4.3382   -0.2350    0.1042 C   0  0  0  0  0  0  0  0  0  0  0  0
    3.6578    0.3398   -0.9558 C   0  0  0  0  0  0  0  0  0  0  0  0
    2.2708    0.1991   -0.9629 C   0  0  0  0  0  0  0  0  0  0  0  0
    7.0588   -0.9248    2.1321 C   0  0  0  0  0  0  0  0  0  0  0  0
    8.2467   -0.8740    1.3761 C   0  0  0  0  0  0  0  0  0  0  0  0
    9.5003   -0.8818    1.9990 C   0  0  0  0  0  0  0  0  0  0  0  0
    9.5896   -0.9282    3.3921 C   0  0  0  0  0  0  0  0  0  0  0  0
    8.4238   -0.9564    4.1609 C   0  0  0  0  0  0  0  0  0  0  0  0
    7.1702   -0.9473    3.5378 C   0  0  0  0  0  0  0  0  0  0  0  0
    4.3165   -2.2733    3.1197 C   0  0  0  0  0  0  0  0  0  0  0  0
    5.1866   -3.3444    3.4157 C   0  0  0  0  0  0  0  0  0  0  0  0
    4.9337   -4.1984    4.4990 C   0  0  0  0  0  0  0  0  0  0  0  0
    3.8037   -3.9805    5.2806 C   0  0  0  0  0  0  0  0  0  0  0  0
    3.3493   -4.6846    6.3762 N   0  0  0  0  0  0  0  0  0  0  0  0
    2.1299   -4.1868    6.7358 C   0  0  0  0  0  0  0  0  0  0  0  0
    1.3977   -4.7894    7.5086 O   0  0  0  0  0  0  0  0  0  0  0  0
    1.7531   -2.9468    5.9338 C   0  0  0  0  0  0  0  0  0  0  0  0
    2.9295   -2.9473    4.9922 C   0  0  0  0  0  0  0  0  0  0  0  0
    3.1687   -2.0904    3.9145 C   0  0  0  0  0  0  0  0  0  0  0  0
    4.1888    0.8712   -1.7411 H   0  0  0  0  0  0  0  0  0  0  0  0
    1.6910    0.6328   -1.7715 H   0  0  0  0  0  0  0  0  0  0  0  0
    8.1998   -0.8360    0.2906 H   0  0  0  0  0  0  0  0  0  0  0  0
   10.4049   -0.8493    1.3975 H   0  0  0  0  0  0  0  0  0  0  0  0
   10.5627   -0.9327    3.8762 H   0  0  0  0  0  0  0  0  0  0  0  0
    8.4897   -0.9760    5.2455 H   0  0  0  0  0  0  0  0  0  0  0  0
    6.2861   -0.9349    4.1682 H   0  0  0  0  0  0  0  0  0  0  0  0
    6.0613   -3.5225    2.7959 H   0  0  0  0  0  0  0  0  0  0  0  0
    5.6073   -5.0194    4.7237 H   0  0  0  0  0  0  0  0  0  0  0  0
    3.5148   -5.6771    6.4994 H   0  0  0  0  0  0  0  0  0  0  0  0
    1.7351   -2.0590    6.5695 H   0  0  0  0  0  0  0  0  0  0  0  0
    0.8042   -3.0892    5.4109 H   0  0  0  0  0  0  0  0  0  0  0  0
    2.4662   -1.2910    3.6936 H   0  0  0  0  0  0  0  0  0  0  0  0
  1  2  1  0
  2  3  1  0
  2  4  1  0
  2  5  1  0
  5  6  2  0
  5 13  1  0
  6  7  1  0
  7  8  2  0
  7 11  1  0
  8  9  1  0
  8 20  1  0
  9 10  1  0
  9 14  1  0
 10 11  2  0
 11 12  1  0
 12 13  2  0
 12 30  1  0
 13 31  1  0
 14 15  2  0
 14 19  1  0
 15 16  1  0
 15 32  1  0
 16 17  2  0
 16 33  1  0
 17 18  1  0
 17 34  1  0
 18 19  2  0
 18 35  1  0
 19 36  1  0
 20 21  2  0
 20 29  1  0
 21 22  1  0
 21 37  1  0
 22 23  2  0
 22 38  1  0
 23 24  1  0
 23 28  1  0
 24 25  1  0
 24 39  1  0
 25 26  2  0
 25 27  1  0
 27 28  1  0
 27 40  1  0
 27 41  1  0
 28 29  2  0
 29 42  1  0
M  END
>  <group_name>  (1) 
JNS

>  <molecule_index>  (1) 
01558

>  <conformer_index>  (1) 
06

>  <method>  (1) 
openff-1.3.0

>  <basis>  (1) 
smirnoff

>  <program>  (1) 
openmm

>  <initial_energy>  (1) 
131.61260396734914 kilocalorie / mole

>  <final_energy>  (1) 
118.03134979456047 kilocalorie / mole

$$$$
