JNS-02392-00
     RDKit          3D

 48 51  0  0  0  0  0  0  0  0999 V2000
   -4.0289   -0.6824   -0.1339 C   0  0  0  0  0  0  0  0  0  0  0  0
   -2.5642   -0.3972    0.0080 C   0  0  0  0  0  0  0  0  0  0  0  0
   -2.1434    0.7146    0.7004 C   0  0  0  0  0  0  0  0  0  0  0  0
   -0.7937    0.9596    0.8019 C   0  0  0  0  0  0  0  0  0  0  0  0
   -0.3025    2.1699    1.5371 C   0  0  0  0  0  0  0  0  0  0  0  0
    0.0839    0.1500    0.2273 N   0  0  0  0  0  0  0  0  0  0  0  0
   -0.3970   -0.9020   -0.4328 C   0  0  0  0  0  0  0  0  0  0  0  0
   -1.6872   -1.2075   -0.5689 N   0  0  0  0  0  0  0  0  0  0  0  0
    0.5240   -1.7547   -1.0139 N   0  0  0  0  0  0  0  0  0  0  0  0
    0.2133   -2.6053   -2.1465 C   0  0  0  0  0  0  0  0  0  0  0  0
    1.6080   -2.2125   -2.7001 C   0  0  2  0  0  0  0  0  0  0  0  0
    2.6220   -3.3685   -2.7790 C   0  0  0  0  0  0  0  0  0  0  0  0
    4.0458   -2.8283   -2.5764 C   0  0  0  0  0  0  0  0  0  0  0  0
    4.1698   -2.0298   -1.3475 N   0  0  0  0  0  0  0  0  0  0  0  0
    2.9656   -1.7853   -0.5381 C   0  0  0  0  0  0  0  0  0  0  0  0
    1.8310   -1.3114   -1.4538 C   0  0  2  0  0  0  0  0  0  0  0  0
    5.3569   -1.3751   -1.0553 C   0  0  0  0  0  0  0  0  0  0  0  0
    5.4547   -0.6814   -0.0509 O   0  0  0  0  0  0  0  0  0  0  0  0
    6.5394   -1.5430   -1.8878 C   0  0  0  0  0  0  0  0  0  0  0  0
    7.3210   -2.6893   -1.7250 C   0  0  0  0  0  0  0  0  0  0  0  0
    8.4482   -2.8343   -2.5196 C   0  0  0  0  0  0  0  0  0  0  0  0
    8.7650   -1.8443   -3.4460 C   0  0  0  0  0  0  0  0  0  0  0  0
    8.0213   -0.7380   -3.6120 N   0  0  0  0  0  0  0  0  0  0  0  0
    6.9131   -0.5566   -2.8369 C   0  0  0  0  0  0  0  0  0  0  0  0
    6.0607    0.7145   -3.0410 C   0  0  0  0  0  0  0  0  0  0  0  0
    6.1268    1.5262   -1.9474 F   0  0  0  0  0  0  0  0  0  0  0  0
    4.7540    0.3949   -3.2823 F   0  0  0  0  0  0  0  0  0  0  0  0
    6.4790    1.4495   -4.1150 F   0  0  0  0  0  0  0  0  0  0  0  0
   -4.4179   -1.0880    0.8037 H   0  0  0  0  0  0  0  0  0  0  0  0
   -4.1975   -1.4130   -0.9304 H   0  0  0  0  0  0  0  0  0  0  0  0
   -4.5697    0.2349   -0.3817 H   0  0  0  0  0  0  0  0  0  0  0  0
   -2.8605    1.3825    1.1612 H   0  0  0  0  0  0  0  0  0  0  0  0
    0.7521    2.3504    1.3084 H   0  0  0  0  0  0  0  0  0  0  0  0
   -0.8791    3.0504    1.2417 H   0  0  0  0  0  0  0  0  0  0  0  0
   -0.4065    2.0150    2.6142 H   0  0  0  0  0  0  0  0  0  0  0  0
   -0.6237   -2.2625   -2.7653 H   0  0  0  0  0  0  0  0  0  0  0  0
    0.0939   -3.6633   -1.8909 H   0  0  0  0  0  0  0  0  0  0  0  0
    1.5572   -1.6301   -3.6250 H   0  0  0  0  0  0  0  0  0  0  0  0
    2.4089   -4.1109   -2.0024 H   0  0  0  0  0  0  0  0  0  0  0  0
    2.5443   -3.8717   -3.7475 H   0  0  0  0  0  0  0  0  0  0  0  0
    4.3093   -2.2113   -3.4416 H   0  0  0  0  0  0  0  0  0  0  0  0
    4.7390   -3.6746   -2.5389 H   0  0  0  0  0  0  0  0  0  0  0  0
    3.1201   -1.0335    0.2426 H   0  0  0  0  0  0  0  0  0  0  0  0
    2.6757   -2.7119   -0.0334 H   0  0  0  0  0  0  0  0  0  0  0  0
    1.9063   -0.2468   -1.7049 H   0  0  0  0  0  0  0  0  0  0  0  0
    7.0568   -3.4433   -0.9855 H   0  0  0  0  0  0  0  0  0  0  0  0
    9.0891   -3.7049   -2.4254 H   0  0  0  0  0  0  0  0  0  0  0  0
    9.6501   -1.9704   -4.0627 H   0  0  0  0  0  0  0  0  0  0  0  0
  1  2  1  0
  1 29  1  0
  1 30  1  0
  1 31  1  0
  2  3  2  0
  2  8  1  0
  3  4  1  0
  3 32  1  0
  4  5  1  0
  4  6  2  0
  5 33  1  0
  5 34  1  0
  5 35  1  0
  6  7  1  0
  7  8  2  0
  7  9  1  0
  9 10  1  0
  9 16  1  0
 10 11  1  0
 10 36  1  0
 10 37  1  0
 11 12  1  0
 11 16  1  0
 11 38  1  6
 12 13  1  0
 12 39  1  0
 12 40  1  0
 13 14  1  0
 13 41  1  0
 13 42  1  0
 14 15  1  0
 14 17  1  0
 15 16  1  0
 15 43  1  0
 15 44  1  0
 16 45  1  6
 17 18  2  0
 17 19  1  0
 19 20  2  0
 19 24  1  0
 20 21  1  0
 20 46  1  0
 21 22  2  0
 21 47  1  0
 22 23  1  0
 22 48  1  0
 23 24  2  0
 24 25  1  0
 25 26  1  0
 25 27  1  0
 25 28  1  0
M  END
>  <group_name>  (1) 
JNS

>  <molecule_index>  (1) 
02392

>  <conformer_index>  (1) 
00

>  <method>  (1) 
openff-1.3.0

>  <basis>  (1) 
smirnoff

>  <program>  (1) 
openmm

>  <initial_energy>  (1) 
-58.54646898580745 kilocalorie / mole

>  <final_energy>  (1) 
-72.64525899454581 kilocalorie / mole

$$$$
