JNS-01474-03
     RDKit          3D

 39 42  0  0  0  0  0  0  0  0999 V2000
   -2.1779    0.8985   -0.0407 C   0  0  0  0  0  0  0  0  0  0  0  0
   -0.7171    0.4276   -0.0133 C   0  0  0  0  0  0  0  0  0  0  0  0
    0.1962    1.1923   -0.9935 C   0  0  0  0  0  0  0  0  0  0  0  0
    0.1105    2.5219   -0.6824 F   0  0  0  0  0  0  0  0  0  0  0  0
   -0.2794    1.0707   -2.2667 F   0  0  0  0  0  0  0  0  0  0  0  0
    1.6495    0.6993   -0.8867 C   0  0  0  0  0  0  0  0  0  0  0  0
    2.6331    1.5120   -0.5414 N   0  0  0  0  0  0  0  0  0  0  0  0
    3.7574    0.7149   -0.4194 C   0  0  0  0  0  0  0  0  0  0  0  0
    3.4679   -0.6052   -0.6849 C   0  0  0  0  0  0  0  0  0  0  0  0
    4.3708   -1.6036   -0.6202 N   0  0  0  0  0  0  0  0  0  0  0  0
    5.6476   -1.2715   -0.2768 C   0  0  0  0  0  0  0  0  0  0  0  0
    5.9957    0.0733    0.0015 C   0  0  0  0  0  0  0  0  0  0  0  0
    5.0409    1.0892   -0.0673 C   0  0  0  0  0  0  0  0  0  0  0  0
    6.7362   -2.3473   -0.1729 C   0  0  0  0  0  0  0  0  0  0  0  0
    7.7137   -2.1040   -1.0949 F   0  0  0  0  0  0  0  0  0  0  0  0
    6.2581   -3.6113   -0.3759 F   0  0  0  0  0  0  0  0  0  0  0  0
    7.3061   -2.3080    1.0680 F   0  0  0  0  0  0  0  0  0  0  0  0
    2.1290   -0.6243   -1.0227 N   0  0  0  0  0  0  0  0  0  0  0  0
    1.4185   -1.7805   -1.3941 C   0  0  0  0  0  0  0  0  0  0  0  0
    1.5512   -2.9602   -0.6354 C   0  0  0  0  0  0  0  0  0  0  0  0
    0.8312   -4.1020   -0.9976 C   0  0  0  0  0  0  0  0  0  0  0  0
    0.0079   -4.1031   -2.0914 C   0  0  0  0  0  0  0  0  0  0  0  0
   -0.5331   -5.3767   -2.1528 N   0  0  0  0  0  0  0  0  0  0  0  0
   -0.0792   -6.1692   -1.1387 N   0  0  0  0  0  0  0  0  0  0  0  0
    0.7460   -5.4303   -0.4332 C   0  0  0  0  0  0  0  0  0  0  0  0
   -0.1223   -2.9633   -2.8844 C   0  0  0  0  0  0  0  0  0  0  0  0
    0.5918   -1.8066   -2.5372 C   0  0  0  0  0  0  0  0  0  0  0  0
   -2.7714    0.3144    0.6695 H   0  0  0  0  0  0  0  0  0  0  0  0
   -2.6077    0.7669   -1.0388 H   0  0  0  0  0  0  0  0  0  0  0  0
   -2.2513    1.9545    0.2381 H   0  0  0  0  0  0  0  0  0  0  0  0
   -0.3225    0.5493    1.0004 H   0  0  0  0  0  0  0  0  0  0  0  0
   -0.6970   -0.6400   -0.2450 H   0  0  0  0  0  0  0  0  0  0  0  0
    7.0189    0.3153    0.2735 H   0  0  0  0  0  0  0  0  0  0  0  0
    5.2727    2.1297    0.1434 H   0  0  0  0  0  0  0  0  0  0  0  0
    2.2037   -2.9881    0.2333 H   0  0  0  0  0  0  0  0  0  0  0  0
   -1.1795   -5.6866   -2.8790 H   0  0  0  0  0  0  0  0  0  0  0  0
    1.2844   -5.7677    0.4475 H   0  0  0  0  0  0  0  0  0  0  0  0
   -0.7546   -2.9730   -3.7669 H   0  0  0  0  0  0  0  0  0  0  0  0
    0.5242   -0.9448   -3.1917 H   0  0  0  0  0  0  0  0  0  0  0  0
  1  2  1  0
  1 28  1  0
  1 29  1  0
  1 30  1  0
  2  3  1  0
  2 31  1  0
  2 32  1  0
  3  4  1  0
  3  5  1  0
  3  6  1  0
  6  7  2  0
  6 18  1  0
  7  8  1  0
  8  9  2  0
  8 13  1  0
  9 10  1  0
  9 18  1  0
 10 11  2  0
 11 12  1  0
 11 14  1  0
 12 13  2  0
 12 33  1  0
 13 34  1  0
 14 15  1  0
 14 16  1  0
 14 17  1  0
 18 19  1  0
 19 20  2  0
 19 27  1  0
 20 21  1  0
 20 35  1  0
 21 22  2  0
 21 25  1  0
 22 23  1  0
 22 26  1  0
 23 24  1  0
 23 36  1  0
 24 25  2  0
 25 37  1  0
 26 27  2  0
 26 38  1  0
 27 39  1  0
M  END
>  <group_name>  (1) 
JNS

>  <molecule_index>  (1) 
01474

>  <conformer_index>  (1) 
03

>  <method>  (1) 
openff-1.3.0

>  <basis>  (1) 
smirnoff

>  <program>  (1) 
openmm

>  <initial_energy>  (1) 
190.21453328046854 kilocalorie / mole

>  <final_energy>  (1) 
178.5364483241956 kilocalorie / mole

$$$$
