JNS-01082-04
     RDKit          3D

 43 46  0  0  0  0  0  0  0  0999 V2000
    0.2368    3.4594    0.8397 C   0  0  0  0  0  0  0  0  0  0  0  0
    0.5203    2.4335   -0.2684 C   0  0  2  0  0  0  0  0  0  0  0  0
    0.3425    3.0538   -1.6655 C   0  0  0  0  0  0  0  0  0  0  0  0
   -1.1192    3.3195   -1.9520 C   0  0  0  0  0  0  0  0  0  0  0  0
   -2.0862    2.5811   -1.3451 C   0  0  0  0  0  0  0  0  0  0  0  0
   -1.8098    1.4464   -0.3882 C   0  0  0  0  0  0  0  0  0  0  0  0
   -0.3638    1.2621   -0.1328 N   0  0  0  0  0  0  0  0  0  0  0  0
    0.1387   -0.0294    0.0248 C   0  0  0  0  0  0  0  0  0  0  0  0
   -0.6209   -0.9898   -0.0662 O   0  0  0  0  0  0  0  0  0  0  0  0
    1.5657   -0.3380    0.1844 C   0  0  0  0  0  0  0  0  0  0  0  0
    2.3151    0.1166    1.2776 C   0  0  0  0  0  0  0  0  0  0  0  0
    1.7112    0.8582    2.2431 F   0  0  0  0  0  0  0  0  0  0  0  0
    3.6886   -0.2189    1.3773 C   0  0  0  0  0  0  0  0  0  0  0  0
    4.2996   -0.9992    0.4383 N   0  0  0  0  0  0  0  0  0  0  0  0
    3.5638   -1.4685   -0.5844 C   0  0  0  0  0  0  0  0  0  0  0  0
    2.2129   -1.1636   -0.7394 C   0  0  0  0  0  0  0  0  0  0  0  0
    4.4901    0.3195    2.5662 C   0  0  0  0  0  0  0  0  0  0  0  0
    5.8049   -0.0487    2.5207 F   0  0  0  0  0  0  0  0  0  0  0  0
    3.9697   -0.1471    3.7389 F   0  0  0  0  0  0  0  0  0  0  0  0
    4.4480    1.6849    2.5756 F   0  0  0  0  0  0  0  0  0  0  0  0
   -3.3359    3.0619   -1.6780 N   0  0  0  0  0  0  0  0  0  0  0  0
   -3.1613    4.0823   -2.4782 N   0  0  0  0  0  0  0  0  0  0  0  0
   -1.8246    4.2728   -2.6793 N   0  0  0  0  0  0  0  0  0  0  0  0
   -1.2918    5.2626   -3.5394 C   0  0  0  0  0  0  0  0  0  0  0  0
   -2.1469    6.1280   -4.1272 N   0  0  0  0  0  0  0  0  0  0  0  0
   -1.6510    7.0561   -4.9453 C   0  0  0  0  0  0  0  0  0  0  0  0
   -0.2914    7.1584   -5.2083 C   0  0  0  0  0  0  0  0  0  0  0  0
    0.2346    8.1175   -6.0555 O   0  0  0  0  0  0  0  0  0  0  0  0
    0.5279    6.2381   -4.5705 C   0  0  0  0  0  0  0  0  0  0  0  0
    0.0431    5.3024   -3.7472 N   0  0  0  0  0  0  0  0  0  0  0  0
   -0.7844    3.8468    0.7768 H   0  0  0  0  0  0  0  0  0  0  0  0
    0.9289    4.3028    0.7582 H   0  0  0  0  0  0  0  0  0  0  0  0
    0.3652    3.0048    1.8255 H   0  0  0  0  0  0  0  0  0  0  0  0
    1.5715    2.1478   -0.1813 H   0  0  0  0  0  0  0  0  0  0  0  0
    0.7292    2.3662   -2.4238 H   0  0  0  0  0  0  0  0  0  0  0  0
    0.9248    3.9773   -1.7251 H   0  0  0  0  0  0  0  0  0  0  0  0
   -2.3276    1.6406    0.5557 H   0  0  0  0  0  0  0  0  0  0  0  0
   -2.2532    0.5456   -0.8239 H   0  0  0  0  0  0  0  0  0  0  0  0
    4.0438   -2.1080   -1.3196 H   0  0  0  0  0  0  0  0  0  0  0  0
    1.6657   -1.5785   -1.5816 H   0  0  0  0  0  0  0  0  0  0  0  0
   -2.3388    7.7513   -5.4179 H   0  0  0  0  0  0  0  0  0  0  0  0
   -0.4534    8.6905   -6.4402 H   0  0  0  0  0  0  0  0  0  0  0  0
    1.5993    6.2787   -4.7453 H   0  0  0  0  0  0  0  0  0  0  0  0
  1  2  1  0
  1 31  1  0
  1 32  1  0
  1 33  1  0
  2  3  1  0
  2  7  1  0
  2 34  1  6
  3  4  1  0
  3 35  1  0
  3 36  1  0
  4  5  2  0
  4 23  1  0
  5  6  1  0
  5 21  1  0
  6  7  1  0
  6 37  1  0
  6 38  1  0
  7  8  1  0
  8  9  2  0
  8 10  1  0
 10 11  2  0
 10 16  1  0
 11 12  1  0
 11 13  1  0
 13 14  2  0
 13 17  1  0
 14 15  1  0
 15 16  2  0
 15 39  1  0
 16 40  1  0
 17 18  1  0
 17 19  1  0
 17 20  1  0
 21 22  2  0
 22 23  1  0
 23 24  1  0
 24 25  2  0
 24 30  1  0
 25 26  1  0
 26 27  2  0
 26 41  1  0
 27 28  1  0
 27 29  1  0
 28 42  1  0
 29 30  2  0
 29 43  1  0
M  END
>  <group_name>  (1) 
JNS

>  <molecule_index>  (1) 
01082

>  <conformer_index>  (1) 
04

>  <method>  (1) 
openff-1.3.0

>  <basis>  (1) 
smirnoff

>  <program>  (1) 
openmm

>  <initial_energy>  (1) 
114.37238297913665 kilocalorie / mole

>  <final_energy>  (1) 
103.33157424978914 kilocalorie / mole

$$$$
