JNS-01861-00
     RDKit          3D

 34 37  0  0  0  0  0  0  0  0999 V2000
   -3.0683    1.8932    1.3131 C   0  0  0  0  0  0  0  0  0  0  0  0
   -2.2414    0.9134    0.5188 C   0  0  0  0  0  0  0  0  0  0  0  0
   -0.8467    1.0650    0.4216 C   0  0  0  0  0  0  0  0  0  0  0  0
   -0.0453    0.1580   -0.3100 C   0  0  0  0  0  0  0  0  0  0  0  0
   -0.6914   -0.9183   -0.9545 C   0  0  0  0  0  0  0  0  0  0  0  0
   -2.0757   -1.0657   -0.8565 C   0  0  0  0  0  0  0  0  0  0  0  0
   -2.8434   -0.1690   -0.1335 C   0  0  0  0  0  0  0  0  0  0  0  0
   -4.1159   -0.4809   -0.1611 N   0  0  0  0  0  0  0  0  0  0  0  0
   -4.1856   -1.6071   -0.9154 N   0  0  0  0  0  0  0  0  0  0  0  0
   -2.9309   -1.9954   -1.3620 C   0  0  0  0  0  0  0  0  0  0  0  0
    1.3559    0.3123   -0.4148 N   0  0  0  0  0  0  0  0  0  0  0  0
    2.1310   -0.2324   -1.4516 C   0  0  0  0  0  0  0  0  0  0  0  0
    3.4512    0.1030   -1.2570 C   0  0  0  0  0  0  0  0  0  0  0  0
    3.5028    0.8843   -0.0453 C   0  0  0  0  0  0  0  0  0  0  0  0
    2.2120    1.0070    0.4604 C   0  0  0  0  0  0  0  0  0  0  0  0
    1.9454    1.6657    1.6066 N   0  0  0  0  0  0  0  0  0  0  0  0
    2.9822    2.2422    2.2749 C   0  0  0  0  0  0  0  0  0  0  0  0
    4.3045    2.1467    1.7826 C   0  0  0  0  0  0  0  0  0  0  0  0
    4.5818    1.4572    0.6056 C   0  0  0  0  0  0  0  0  0  0  0  0
    2.7412    3.0169    3.5776 C   0  0  0  0  0  0  0  0  0  0  0  0
    3.2227    4.2899    3.4555 F   0  0  0  0  0  0  0  0  0  0  0  0
    1.4198    3.0986    3.9174 F   0  0  0  0  0  0  0  0  0  0  0  0
    3.4093    2.4126    4.6047 F   0  0  0  0  0  0  0  0  0  0  0  0
   -2.4327    2.6341    1.8068 H   0  0  0  0  0  0  0  0  0  0  0  0
   -3.7647    2.4147    0.6503 H   0  0  0  0  0  0  0  0  0  0  0  0
   -3.6403    1.3621    2.0796 H   0  0  0  0  0  0  0  0  0  0  0  0
   -0.4009    1.9195    0.9167 H   0  0  0  0  0  0  0  0  0  0  0  0
   -0.1328   -1.6578   -1.5149 H   0  0  0  0  0  0  0  0  0  0  0  0
   -5.0547   -2.0990   -1.1168 H   0  0  0  0  0  0  0  0  0  0  0  0
   -2.6801   -2.8531   -1.9777 H   0  0  0  0  0  0  0  0  0  0  0  0
    1.7567   -0.8065   -2.2934 H   0  0  0  0  0  0  0  0  0  0  0  0
    4.2907   -0.1632   -1.8938 H   0  0  0  0  0  0  0  0  0  0  0  0
    5.1133    2.6159    2.3344 H   0  0  0  0  0  0  0  0  0  0  0  0
    5.5922    1.3678    0.2159 H   0  0  0  0  0  0  0  0  0  0  0  0
  1  2  1  0
  1 24  1  0
  1 25  1  0
  1 26  1  0
  2  3  2  0
  2  7  1  0
  3  4  1  0
  3 27  1  0
  4  5  2  0
  4 11  1  0
  5  6  1  0
  5 28  1  0
  6  7  1  0
  6 10  2  0
  7  8  2  0
  8  9  1  0
  9 10  1  0
  9 29  1  0
 10 30  1  0
 11 12  1  0
 11 15  1  0
 12 13  2  0
 12 31  1  0
 13 14  1  0
 13 32  1  0
 14 15  2  0
 14 19  1  0
 15 16  1  0
 16 17  2  0
 17 18  1  0
 17 20  1  0
 18 19  2  0
 18 33  1  0
 19 34  1  0
 20 21  1  0
 20 22  1  0
 20 23  1  0
M  END
>  <group_name>  (1) 
JNS

>  <molecule_index>  (1) 
01861

>  <conformer_index>  (1) 
00

>  <method>  (1) 
openff-1.3.0

>  <basis>  (1) 
smirnoff

>  <program>  (1) 
openmm

>  <initial_energy>  (1) 
150.0314773128268 kilocalorie / mole

>  <final_energy>  (1) 
136.1543564107658 kilocalorie / mole

$$$$
