JNS-00617-00
     RDKit          3D

 44 48  0  0  0  0  0  0  0  0999 V2000
   -0.4753   -4.8116    0.5822 F   0  0  0  0  0  0  0  0  0  0  0  0
   -1.7619   -4.4375    0.3098 C   0  0  0  0  0  0  0  0  0  0  0  0
   -2.5377   -4.8115    1.3708 F   0  0  0  0  0  0  0  0  0  0  0  0
   -2.1858   -5.1332   -0.7866 F   0  0  0  0  0  0  0  0  0  0  0  0
   -1.9099   -2.9325    0.0613 C   0  0  0  0  0  0  0  0  0  0  0  0
   -0.8145   -2.1218    0.0468 N   0  0  0  0  0  0  0  0  0  0  0  0
   -1.0155   -0.8070   -0.1679 C   0  0  0  0  0  0  0  0  0  0  0  0
   -0.1107    0.2184   -0.2464 C   0  0  0  0  0  0  0  0  0  0  0  0
   -0.8945    1.3571   -0.4687 N   0  0  0  0  0  0  0  0  0  0  0  0
   -0.4397    2.7529   -0.3934 C   0  0  0  0  0  0  0  0  0  0  0  0
    0.1087    3.1073    0.9963 C   0  0  0  0  0  0  0  0  0  0  0  0
    0.3792    4.5919    1.2350 C   0  0  0  0  0  0  0  0  0  0  0  0
   -0.5469    4.5697    2.4447 C   0  0  0  0  0  0  0  0  0  0  0  0
   -0.9167    3.1259    2.1304 C   0  0  0  0  0  0  0  0  0  0  0  0
   -2.2160    1.0449   -0.5551 N   0  0  0  0  0  0  0  0  0  0  0  0
   -2.2664   -0.2461   -0.3698 C   0  0  0  0  0  0  0  0  0  0  0  0
   -3.3991   -1.0418   -0.3615 C   0  0  0  0  0  0  0  0  0  0  0  0
   -3.2077   -2.4050   -0.1415 C   0  0  0  0  0  0  0  0  0  0  0  0
    1.3527    0.1151   -0.1040 C   0  0  0  0  0  0  0  0  0  0  0  0
    1.9170   -0.7797    0.8306 C   0  0  0  0  0  0  0  0  0  0  0  0
    3.3081   -0.8799    0.9886 C   0  0  0  0  0  0  0  0  0  0  0  0
    4.1332   -0.0751    0.2036 C   0  0  0  0  0  0  0  0  0  0  0  0
    5.4914    0.0894    0.0857 N   0  0  0  0  0  0  0  0  0  0  0  0
    5.7095    1.0465   -0.8907 C   0  0  0  0  0  0  0  0  0  0  0  0
    6.9259    1.4879   -1.3005 O   0  0  0  0  0  0  0  0  0  0  0  0
    4.5913    1.4911   -1.3884 N   0  0  0  0  0  0  0  0  0  0  0  0
    3.5947    0.7963   -0.7180 C   0  0  0  0  0  0  0  0  0  0  0  0
    2.2183    0.8961   -0.8949 C   0  0  0  0  0  0  0  0  0  0  0  0
   -1.2869    3.4074   -0.6203 H   0  0  0  0  0  0  0  0  0  0  0  0
    0.3154    2.9454   -1.1578 H   0  0  0  0  0  0  0  0  0  0  0  0
    0.9826    2.4987    1.2523 H   0  0  0  0  0  0  0  0  0  0  0  0
    0.0296    5.2484    0.4311 H   0  0  0  0  0  0  0  0  0  0  0  0
    1.4228    4.8216    1.4747 H   0  0  0  0  0  0  0  0  0  0  0  0
   -0.0248    4.6906    3.3995 H   0  0  0  0  0  0  0  0  0  0  0  0
   -1.3854    5.2708    2.3806 H   0  0  0  0  0  0  0  0  0  0  0  0
   -0.6990    2.4200    2.9387 H   0  0  0  0  0  0  0  0  0  0  0  0
   -1.9545    3.0037    1.8018 H   0  0  0  0  0  0  0  0  0  0  0  0
   -4.3855   -0.6147   -0.5205 H   0  0  0  0  0  0  0  0  0  0  0  0
   -4.0642   -3.0714   -0.1255 H   0  0  0  0  0  0  0  0  0  0  0  0
    1.2696   -1.4028    1.4419 H   0  0  0  0  0  0  0  0  0  0  0  0
    3.7275   -1.5755    1.7088 H   0  0  0  0  0  0  0  0  0  0  0  0
    6.2008   -0.4122    0.6059 H   0  0  0  0  0  0  0  0  0  0  0  0
    7.6170    1.0155   -0.8246 H   0  0  0  0  0  0  0  0  0  0  0  0
    1.8551    1.5666   -1.6634 H   0  0  0  0  0  0  0  0  0  0  0  0
  1  2  1  0
  2  3  1  0
  2  4  1  0
  2  5  1  0
  5  6  2  0
  5 18  1  0
  6  7  1  0
  7  8  2  0
  7 16  1  0
  8  9  1  0
  8 19  1  0
  9 10  1  0
  9 15  1  0
 10 11  1  0
 10 29  1  0
 10 30  1  0
 11 12  1  0
 11 14  1  0
 11 31  1  0
 12 13  1  0
 12 32  1  0
 12 33  1  0
 13 14  1  0
 13 34  1  0
 13 35  1  0
 14 36  1  0
 14 37  1  0
 15 16  2  0
 16 17  1  0
 17 18  2  0
 17 38  1  0
 18 39  1  0
 19 20  2  0
 19 28  1  0
 20 21  1  0
 20 40  1  0
 21 22  2  0
 21 41  1  0
 22 23  1  0
 22 27  1  0
 23 24  1  0
 23 42  1  0
 24 25  1  0
 24 26  2  0
 25 43  1  0
 26 27  1  0
 27 28  2  0
 28 44  1  0
M  END
>  <group_name>  (1) 
JNS

>  <molecule_index>  (1) 
00617

>  <conformer_index>  (1) 
00

>  <method>  (1) 
openff-1.3.0

>  <basis>  (1) 
smirnoff

>  <program>  (1) 
openmm

>  <initial_energy>  (1) 
122.61747689850479 kilocalorie / mole

>  <final_energy>  (1) 
108.65322458684113 kilocalorie / mole

$$$$
