JNS-01242-07
     RDKit          3D

 41 45  0  0  0  0  0  0  0  0999 V2000
   -1.1801    5.1001   -1.6338 F   0  0  0  0  0  0  0  0  0  0  0  0
   -0.8539    4.5214   -0.4402 C   0  0  0  0  0  0  0  0  0  0  0  0
    0.4457    4.8376   -0.1598 F   0  0  0  0  0  0  0  0  0  0  0  0
   -1.6471    5.0707    0.5263 F   0  0  0  0  0  0  0  0  0  0  0  0
   -1.1003    3.0090   -0.5139 C   0  0  0  0  0  0  0  0  0  0  0  0
   -2.3940    2.5507   -0.8642 C   0  0  0  0  0  0  0  0  0  0  0  0
   -2.6707    1.1856   -0.9518 C   0  0  0  0  0  0  0  0  0  0  0  0
   -1.6270    0.3200   -0.6825 C   0  0  0  0  0  0  0  0  0  0  0  0
   -1.6354   -1.0633   -0.7044 N   0  0  0  0  0  0  0  0  0  0  0  0
   -0.4128   -1.4231   -0.3802 C   0  0  0  0  0  0  0  0  0  0  0  0
    0.0444   -2.8743   -0.4010 C   0  0  2  0  0  0  0  0  0  0  0  0
   -0.4915   -3.6645   -1.5908 C   0  0  0  0  0  0  0  0  0  0  0  0
   -1.8474   -4.1638   -1.1156 C   0  0  0  0  0  0  0  0  0  0  0  0
   -1.7308   -4.3086    0.3076 O   0  0  0  0  0  0  0  0  0  0  0  0
   -0.5424   -3.6514    0.7740 C   0  0  0  0  0  0  0  0  0  0  0  0
    0.3989   -0.3043   -0.1192 N   0  0  0  0  0  0  0  0  0  0  0  0
   -0.3825    0.8123   -0.3473 C   0  0  0  0  0  0  0  0  0  0  0  0
   -0.0948    2.1257   -0.2543 N   0  0  0  0  0  0  0  0  0  0  0  0
    1.7255   -0.2856    0.3532 C   0  0  0  0  0  0  0  0  0  0  0  0
    2.1722   -1.2007    1.3340 C   0  0  0  0  0  0  0  0  0  0  0  0
    3.4969   -1.1727    1.7983 C   0  0  0  0  0  0  0  0  0  0  0  0
    4.3708   -0.2208    1.2869 C   0  0  0  0  0  0  0  0  0  0  0  0
    5.6944   -0.0021    1.5878 N   0  0  0  0  0  0  0  0  0  0  0  0
    6.0124    1.0158    0.8368 C   0  0  0  0  0  0  0  0  0  0  0  0
    7.2442    1.5745    0.8217 O   0  0  0  0  0  0  0  0  0  0  0  0
    5.0001    1.5001    0.0420 O   0  0  0  0  0  0  0  0  0  0  0  0
    3.9500    0.6897    0.3487 C   0  0  0  0  0  0  0  0  0  0  0  0
    2.6379    0.6778   -0.1252 C   0  0  0  0  0  0  0  0  0  0  0  0
   -3.1800    3.2724   -1.0662 H   0  0  0  0  0  0  0  0  0  0  0  0
   -3.6514    0.8002   -1.2165 H   0  0  0  0  0  0  0  0  0  0  0  0
    1.1357   -2.9163   -0.3926 H   0  0  0  0  0  0  0  0  0  0  0  0
   -0.5676   -3.0613   -2.5013 H   0  0  0  0  0  0  0  0  0  0  0  0
    0.1563   -4.5245   -1.7888 H   0  0  0  0  0  0  0  0  0  0  0  0
   -2.1004   -5.1164   -1.5915 H   0  0  0  0  0  0  0  0  0  0  0  0
   -2.6323   -3.4375   -1.3504 H   0  0  0  0  0  0  0  0  0  0  0  0
   -0.7660   -2.9893    1.6170 H   0  0  0  0  0  0  0  0  0  0  0  0
    0.1701   -4.4113    1.1105 H   0  0  0  0  0  0  0  0  0  0  0  0
    1.4917   -1.9231    1.7699 H   0  0  0  0  0  0  0  0  0  0  0  0
    3.8545   -1.8658    2.5532 H   0  0  0  0  0  0  0  0  0  0  0  0
    7.1974    2.3108    0.1996 H   0  0  0  0  0  0  0  0  0  0  0  0
    2.3433    1.4146   -0.8661 H   0  0  0  0  0  0  0  0  0  0  0  0
  1  2  1  0
  2  3  1  0
  2  4  1  0
  2  5  1  0
  5  6  2  0
  5 18  1  0
  6  7  1  0
  6 29  1  0
  7  8  2  0
  7 30  1  0
  8  9  1  0
  8 17  1  0
  9 10  2  0
 10 11  1  0
 10 16  1  0
 11 12  1  0
 11 15  1  0
 11 31  1  1
 12 13  1  0
 12 32  1  0
 12 33  1  0
 13 14  1  0
 13 34  1  0
 13 35  1  0
 14 15  1  0
 15 36  1  0
 15 37  1  0
 16 17  1  0
 16 19  1  0
 17 18  2  0
 19 20  2  0
 19 28  1  0
 20 21  1  0
 20 38  1  0
 21 22  2  0
 21 39  1  0
 22 23  1  0
 22 27  1  0
 23 24  2  0
 24 25  1  0
 24 26  1  0
 25 40  1  0
 26 27  1  0
 27 28  2  0
 28 41  1  0
M  END
>  <group_name>  (1) 
JNS

>  <molecule_index>  (1) 
01242

>  <conformer_index>  (1) 
07

>  <method>  (1) 
openff-1.3.0

>  <basis>  (1) 
smirnoff

>  <program>  (1) 
openmm

>  <initial_energy>  (1) 
99.44671489792087 kilocalorie / mole

>  <final_energy>  (1) 
86.10858681616364 kilocalorie / mole

$$$$
