JNS-02158-01
     RDKit          3D

 42 45  0  0  0  0  0  0  0  0999 V2000
   -2.3966    1.3493    0.9514 C   0  0  0  0  0  0  0  0  0  0  0  0
   -1.7561    1.4307   -0.4430 C   0  0  2  0  0  0  0  0  0  0  0  0
   -0.2985    1.1804   -0.5833 N   0  0  0  0  0  0  0  0  0  0  0  0
    0.1739    1.3222   -1.9668 C   0  0  0  0  0  0  0  0  0  0  0  0
    0.0922    2.8036   -2.3584 C   0  0  0  0  0  0  0  0  0  0  0  0
   -1.2655    3.3769   -1.9993 C   0  0  0  0  0  0  0  0  0  0  0  0
   -2.0998    2.7464   -1.1220 C   0  0  0  0  0  0  0  0  0  0  0  0
   -3.2787    3.4613   -1.0071 N   0  0  0  0  0  0  0  0  0  0  0  0
   -3.1899    4.5057   -1.7899 N   0  0  0  0  0  0  0  0  0  0  0  0
   -1.9759    4.4994   -2.4117 N   0  0  0  0  0  0  0  0  0  0  0  0
   -1.5359    5.5189   -3.2899 C   0  0  0  0  0  0  0  0  0  0  0  0
   -0.2821    5.4570   -3.7928 N   0  0  0  0  0  0  0  0  0  0  0  0
    0.1167    6.4335   -4.6146 C   0  0  0  0  0  0  0  0  0  0  0  0
   -0.7094    7.4849   -4.9569 C   0  0  0  0  0  0  0  0  0  0  0  0
   -0.2931    8.4712   -5.7933 F   0  0  0  0  0  0  0  0  0  0  0  0
   -1.9773    7.4882   -4.4110 C   0  0  0  0  0  0  0  0  0  0  0  0
   -2.3906    6.5210   -3.5889 N   0  0  0  0  0  0  0  0  0  0  0  0
    0.6264    1.2099    0.4648 C   0  0  0  0  0  0  0  0  0  0  0  0
    0.3161    1.6151    1.5791 O   0  0  0  0  0  0  0  0  0  0  0  0
    2.0355    0.8132    0.3020 C   0  0  0  0  0  0  0  0  0  0  0  0
    3.0541    1.6082    0.8378 C   0  0  0  0  0  0  0  0  0  0  0  0
    4.3880    1.2300    0.7043 C   0  0  0  0  0  0  0  0  0  0  0  0
    4.7626    0.1051    0.0712 N   0  0  0  0  0  0  0  0  0  0  0  0
    3.7936   -0.7134   -0.4329 C   0  0  0  0  0  0  0  0  0  0  0  0
    2.4185   -0.3862   -0.3197 C   0  0  0  0  0  0  0  0  0  0  0  0
    1.4667   -1.2359   -0.7923 F   0  0  0  0  0  0  0  0  0  0  0  0
    4.1833   -2.0134   -1.1438 C   0  0  0  0  0  0  0  0  0  0  0  0
    3.7097   -2.0031   -2.4252 F   0  0  0  0  0  0  0  0  0  0  0  0
    3.6591   -3.0891   -0.4866 F   0  0  0  0  0  0  0  0  0  0  0  0
    5.5366   -2.1880   -1.2099 F   0  0  0  0  0  0  0  0  0  0  0  0
   -2.0861    2.1921    1.5763 H   0  0  0  0  0  0  0  0  0  0  0  0
   -3.4869    1.3851    0.8667 H   0  0  0  0  0  0  0  0  0  0  0  0
   -2.1230    0.4110    1.4431 H   0  0  0  0  0  0  0  0  0  0  0  0
   -2.2560    0.6484   -1.0229 H   0  0  0  0  0  0  0  0  0  0  0  0
    1.1955    0.9658   -2.1164 H   0  0  0  0  0  0  0  0  0  0  0  0
   -0.4644    0.7288   -2.6306 H   0  0  0  0  0  0  0  0  0  0  0  0
    0.2788    2.9004   -3.4319 H   0  0  0  0  0  0  0  0  0  0  0  0
    0.8639    3.3688   -1.8265 H   0  0  0  0  0  0  0  0  0  0  0  0
    1.1216    6.3983   -5.0259 H   0  0  0  0  0  0  0  0  0  0  0  0
   -2.6579    8.2986   -4.6562 H   0  0  0  0  0  0  0  0  0  0  0  0
    2.8117    2.5248    1.3692 H   0  0  0  0  0  0  0  0  0  0  0  0
    5.1580    1.8699    1.1259 H   0  0  0  0  0  0  0  0  0  0  0  0
  1  2  1  0
  1 31  1  0
  1 32  1  0
  1 33  1  0
  2  3  1  0
  2  7  1  0
  2 34  1  6
  3  4  1  0
  3 18  1  0
  4  5  1  0
  4 35  1  0
  4 36  1  0
  5  6  1  0
  5 37  1  0
  5 38  1  0
  6  7  2  0
  6 10  1  0
  7  8  1  0
  8  9  2  0
  9 10  1  0
 10 11  1  0
 11 12  2  0
 11 17  1  0
 12 13  1  0
 13 14  2  0
 13 39  1  0
 14 15  1  0
 14 16  1  0
 16 17  2  0
 16 40  1  0
 18 19  2  0
 18 20  1  0
 20 21  2  0
 20 25  1  0
 21 22  1  0
 21 41  1  0
 22 23  2  0
 22 42  1  0
 23 24  1  0
 24 25  2  0
 24 27  1  0
 25 26  1  0
 27 28  1  0
 27 29  1  0
 27 30  1  0
M  END
>  <group_name>  (1) 
JNS

>  <molecule_index>  (1) 
02158

>  <conformer_index>  (1) 
01

>  <method>  (1) 
openff-1.3.0

>  <basis>  (1) 
smirnoff

>  <program>  (1) 
openmm

>  <initial_energy>  (1) 
95.28499501600803 kilocalorie / mole

>  <final_energy>  (1) 
85.12920959757109 kilocalorie / mole

$$$$
