JNS-01795-03
     RDKit          3D

 43 46  0  0  0  0  0  0  0  0999 V2000
   -0.9157   -0.2433   -1.0904 C   0  0  0  0  0  0  0  0  0  0  0  0
   -0.1527    0.1600    0.1893 C   0  0  0  0  0  0  0  0  0  0  0  0
   -0.7896   -0.5236    1.4117 C   0  0  0  0  0  0  0  0  0  0  0  0
   -0.3625    1.6853    0.3417 C   0  0  0  0  0  0  0  0  0  0  0  0
    1.3554   -0.1540    0.1301 C   0  0  0  0  0  0  0  0  0  0  0  0
    2.1995    0.5499    0.8596 N   0  0  0  0  0  0  0  0  0  0  0  0
    3.4632    0.1440    0.4676 C   0  0  0  0  0  0  0  0  0  0  0  0
    3.3975   -0.8285   -0.5059 C   0  0  0  0  0  0  0  0  0  0  0  0
    4.4748   -1.3981   -1.0819 N   0  0  0  0  0  0  0  0  0  0  0  0
    5.7014   -0.9738   -0.6658 C   0  0  0  0  0  0  0  0  0  0  0  0
    5.8226    0.0242    0.3329 C   0  0  0  0  0  0  0  0  0  0  0  0
    4.6903    0.5981    0.9140 C   0  0  0  0  0  0  0  0  0  0  0  0
    6.9820   -1.5623   -1.2718 C   0  0  0  0  0  0  0  0  0  0  0  0
    7.7144   -2.1765   -0.2960 F   0  0  0  0  0  0  0  0  0  0  0  0
    6.7385   -2.4740   -2.2605 F   0  0  0  0  0  0  0  0  0  0  0  0
    7.7444   -0.5604   -1.8024 F   0  0  0  0  0  0  0  0  0  0  0  0
    2.0527   -1.0676   -0.6891 N   0  0  0  0  0  0  0  0  0  0  0  0
    1.5615   -2.1819   -1.3842 C   0  0  0  0  0  0  0  0  0  0  0  0
    0.7696   -3.1505   -0.7404 C   0  0  0  0  0  0  0  0  0  0  0  0
    0.3029   -4.2512   -1.4610 C   0  0  0  0  0  0  0  0  0  0  0  0
    0.6310   -4.4164   -2.7954 C   0  0  0  0  0  0  0  0  0  0  0  0
    0.0400   -5.5920   -3.2370 N   0  0  0  0  0  0  0  0  0  0  0  0
   -0.6630   -6.1800   -2.1835 C   0  0  0  0  0  0  0  0  0  0  0  0
   -0.5201   -5.3770   -1.0713 C   0  0  0  0  0  0  0  0  0  0  0  0
    1.4439   -3.4900   -3.4479 C   0  0  0  0  0  0  0  0  0  0  0  0
    1.9132   -2.3771   -2.7344 C   0  0  0  0  0  0  0  0  0  0  0  0
   -0.9965   -1.3269   -1.1895 H   0  0  0  0  0  0  0  0  0  0  0  0
   -0.4126    0.1550   -1.9775 H   0  0  0  0  0  0  0  0  0  0  0  0
   -1.9388    0.1454   -1.0716 H   0  0  0  0  0  0  0  0  0  0  0  0
   -0.7231   -1.6105    1.3365 H   0  0  0  0  0  0  0  0  0  0  0  0
   -1.8477   -0.2559    1.4956 H   0  0  0  0  0  0  0  0  0  0  0  0
   -0.2815   -0.2123    2.3304 H   0  0  0  0  0  0  0  0  0  0  0  0
    0.0704    2.0509    1.2787 H   0  0  0  0  0  0  0  0  0  0  0  0
    0.1130    2.2205   -0.4868 H   0  0  0  0  0  0  0  0  0  0  0  0
   -1.4276    1.9378    0.3509 H   0  0  0  0  0  0  0  0  0  0  0  0
    6.8102    0.3467    0.6487 H   0  0  0  0  0  0  0  0  0  0  0  0
    4.7479    1.3669    1.6791 H   0  0  0  0  0  0  0  0  0  0  0  0
    0.5348   -3.0666    0.3132 H   0  0  0  0  0  0  0  0  0  0  0  0
    0.1287   -5.9698   -4.1787 H   0  0  0  0  0  0  0  0  0  0  0  0
   -1.2226   -7.1110   -2.2262 H   0  0  0  0  0  0  0  0  0  0  0  0
   -0.9409   -5.5551   -0.0860 H   0  0  0  0  0  0  0  0  0  0  0  0
    1.7187   -3.6290   -4.4885 H   0  0  0  0  0  0  0  0  0  0  0  0
    2.5591   -1.6571   -3.2295 H   0  0  0  0  0  0  0  0  0  0  0  0
  1  2  1  0
  1 27  1  0
  1 28  1  0
  1 29  1  0
  2  3  1  0
  2  4  1  0
  2  5  1  0
  3 30  1  0
  3 31  1  0
  3 32  1  0
  4 33  1  0
  4 34  1  0
  4 35  1  0
  5  6  2  0
  5 17  1  0
  6  7  1  0
  7  8  2  0
  7 12  1  0
  8  9  1  0
  8 17  1  0
  9 10  2  0
 10 11  1  0
 10 13  1  0
 11 12  2  0
 11 36  1  0
 12 37  1  0
 13 14  1  0
 13 15  1  0
 13 16  1  0
 17 18  1  0
 18 19  2  0
 18 26  1  0
 19 20  1  0
 19 38  1  0
 20 21  2  0
 20 24  1  0
 21 22  1  0
 21 25  1  0
 22 23  1  0
 22 39  1  0
 23 24  2  0
 23 40  1  0
 24 41  1  0
 25 26  2  0
 25 42  1  0
 26 43  1  0
M  END
>  <group_name>  (1) 
JNS

>  <molecule_index>  (1) 
01795

>  <conformer_index>  (1) 
03

>  <method>  (1) 
openff-1.3.0

>  <basis>  (1) 
smirnoff

>  <program>  (1) 
openmm

>  <initial_energy>  (1) 
169.1428904868744 kilocalorie / mole

>  <final_energy>  (1) 
159.64625005087626 kilocalorie / mole

$$$$
