JNS-00129-06
     RDKit          3D

 31 33  0  0  0  0  0  0  0  0999 V2000
    0.7030   -1.2044   -1.0431 N   0  0  0  0  0  0  0  0  0  0  0  0
   -0.4076   -0.4647   -0.6232 C   0  0  0  0  0  0  0  0  0  0  0  0
   -0.3138    0.8362   -0.0316 C   0  0  0  0  0  0  0  0  0  0  0  0
    0.8818    1.5111    0.1743 N   0  0  0  0  0  0  0  0  0  0  0  0
    1.9324    1.6449   -0.7368 C   0  0  0  0  0  0  0  0  0  0  0  0
    1.7892    1.3864   -2.1135 C   0  0  0  0  0  0  0  0  0  0  0  0
    2.8886    1.5466   -2.9632 C   0  0  0  0  0  0  0  0  0  0  0  0
    4.0987    1.9702   -2.4794 C   0  0  0  0  0  0  0  0  0  0  0  0
    4.9451    2.0218   -3.5747 N   0  0  0  0  0  0  0  0  0  0  0  0
    4.3099    1.6483   -4.7235 N   0  0  0  0  0  0  0  0  0  0  0  0
    3.0733    1.3634   -4.3858 C   0  0  0  0  0  0  0  0  0  0  0  0
    4.2638    2.2611   -1.1242 C   0  0  0  0  0  0  0  0  0  0  0  0
    3.1710    2.1012   -0.2582 C   0  0  0  0  0  0  0  0  0  0  0  0
   -1.3720    1.4947    0.4611 N   0  0  0  0  0  0  0  0  0  0  0  0
   -2.6036    0.9285    0.3439 C   0  0  0  0  0  0  0  0  0  0  0  0
   -2.7630   -0.3344   -0.2638 C   0  0  0  0  0  0  0  0  0  0  0  0
   -1.6633   -1.0429   -0.7451 C   0  0  0  0  0  0  0  0  0  0  0  0
   -3.8528    1.6435    0.8708 C   0  0  0  0  0  0  0  0  0  0  0  0
   -4.4779    0.8539    1.7934 F   0  0  0  0  0  0  0  0  0  0  0  0
   -4.7241    1.8611   -0.1579 F   0  0  0  0  0  0  0  0  0  0  0  0
   -3.5741    2.8452    1.4580 F   0  0  0  0  0  0  0  0  0  0  0  0
    0.6144   -2.1798   -1.3156 H   0  0  0  0  0  0  0  0  0  0  0  0
    1.6265   -0.7932   -0.8841 H   0  0  0  0  0  0  0  0  0  0  0  0
    0.7885    2.2480    0.8677 H   0  0  0  0  0  0  0  0  0  0  0  0
    0.8344    1.0798   -2.5280 H   0  0  0  0  0  0  0  0  0  0  0  0
    5.9208    2.3173   -3.5274 H   0  0  0  0  0  0  0  0  0  0  0  0
    2.3015    1.0346   -5.0751 H   0  0  0  0  0  0  0  0  0  0  0  0
    5.2200    2.6077   -0.7444 H   0  0  0  0  0  0  0  0  0  0  0  0
    3.2887    2.3232    0.7978 H   0  0  0  0  0  0  0  0  0  0  0  0
   -3.7582   -0.7630   -0.3453 H   0  0  0  0  0  0  0  0  0  0  0  0
   -1.7886   -2.0237   -1.1932 H   0  0  0  0  0  0  0  0  0  0  0  0
  1  2  1  0
  1 22  1  0
  1 23  1  0
  2  3  2  0
  2 17  1  0
  3  4  1  0
  3 14  1  0
  4  5  1  0
  4 24  1  0
  5  6  2  0
  5 13  1  0
  6  7  1  0
  6 25  1  0
  7  8  2  0
  7 11  1  0
  8  9  1  0
  8 12  1  0
  9 10  1  0
  9 26  1  0
 10 11  2  0
 11 27  1  0
 12 13  2  0
 12 28  1  0
 13 29  1  0
 14 15  2  0
 15 16  1  0
 15 18  1  0
 16 17  2  0
 16 30  1  0
 17 31  1  0
 18 19  1  0
 18 20  1  0
 18 21  1  0
M  END
>  <group_name>  (1) 
JNS

>  <molecule_index>  (1) 
00129

>  <conformer_index>  (1) 
06

>  <method>  (1) 
openff-1.3.0

>  <basis>  (1) 
smirnoff

>  <program>  (1) 
openmm

>  <initial_energy>  (1) 
121.51216003628029 kilocalorie / mole

>  <final_energy>  (1) 
110.83629842309037 kilocalorie / mole

$$$$
