JNS-00617-07
     RDKit          3D

 44 48  0  0  0  0  0  0  0  0999 V2000
   -3.2317   -3.6725   -2.3625 F   0  0  0  0  0  0  0  0  0  0  0  0
   -2.1398   -3.8655   -1.5639 C   0  0  0  0  0  0  0  0  0  0  0  0
   -1.0405   -3.9495   -2.3724 F   0  0  0  0  0  0  0  0  0  0  0  0
   -2.2924   -5.0637   -0.9258 F   0  0  0  0  0  0  0  0  0  0  0  0
   -2.0430   -2.7352   -0.5335 C   0  0  0  0  0  0  0  0  0  0  0  0
   -0.9184   -1.9701   -0.4473 N   0  0  0  0  0  0  0  0  0  0  0  0
   -0.9030   -0.9883    0.4749 C   0  0  0  0  0  0  0  0  0  0  0  0
    0.0843   -0.0913    0.7844 C   0  0  0  0  0  0  0  0  0  0  0  0
   -0.4655    0.6924    1.8055 N   0  0  0  0  0  0  0  0  0  0  0  0
    0.0878    1.9510    2.3251 C   0  0  0  0  0  0  0  0  0  0  0  0
    0.2000    3.0252    1.2337 C   0  0  0  0  0  0  0  0  0  0  0  0
   -1.1249    3.5518    0.6810 C   0  0  0  0  0  0  0  0  0  0  0  0
   -0.7234    4.9706    1.0627 C   0  0  0  0  0  0  0  0  0  0  0  0
    0.5359    4.4309    1.7292 C   0  0  0  0  0  0  0  0  0  0  0  0
   -1.7190    0.2774    2.1339 N   0  0  0  0  0  0  0  0  0  0  0  0
   -1.9615   -0.7204    1.3280 C   0  0  0  0  0  0  0  0  0  0  0  0
   -3.1176   -1.4792    1.2665 C   0  0  0  0  0  0  0  0  0  0  0  0
   -3.1494   -2.5001    0.3177 C   0  0  0  0  0  0  0  0  0  0  0  0
    1.4103    0.0137    0.1510 C   0  0  0  0  0  0  0  0  0  0  0  0
    1.5532   -0.1858   -1.2388 C   0  0  0  0  0  0  0  0  0  0  0  0
    2.8060   -0.0730   -1.8613 C   0  0  0  0  0  0  0  0  0  0  0  0
    3.9179    0.2405   -1.0810 C   0  0  0  0  0  0  0  0  0  0  0  0
    5.2549    0.4222   -1.3365 N   0  0  0  0  0  0  0  0  0  0  0  0
    5.8596    0.7026   -0.1320 C   0  0  0  0  0  0  0  0  0  0  0  0
    7.1620    0.9469    0.0880 O   0  0  0  0  0  0  0  0  0  0  0  0
    5.0237    0.7195    0.8628 N   0  0  0  0  0  0  0  0  0  0  0  0
    3.7942    0.4265    0.2823 C   0  0  0  0  0  0  0  0  0  0  0  0
    2.5588    0.3072    0.9124 C   0  0  0  0  0  0  0  0  0  0  0  0
   -0.5681    2.3172    3.1209 H   0  0  0  0  0  0  0  0  0  0  0  0
    1.0634    1.7734    2.7813 H   0  0  0  0  0  0  0  0  0  0  0  0
    0.8771    2.7149    0.4305 H   0  0  0  0  0  0  0  0  0  0  0  0
   -1.2520    3.3948   -0.3952 H   0  0  0  0  0  0  0  0  0  0  0  0
   -2.0111    3.1915    1.2147 H   0  0  0  0  0  0  0  0  0  0  0  0
   -1.4189    5.4633    1.7499 H   0  0  0  0  0  0  0  0  0  0  0  0
   -0.5220    5.6158    0.2012 H   0  0  0  0  0  0  0  0  0  0  0  0
    0.5309    4.5374    2.8192 H   0  0  0  0  0  0  0  0  0  0  0  0
    1.4671    4.8368    1.3202 H   0  0  0  0  0  0  0  0  0  0  0  0
   -3.9545   -1.2810    1.9306 H   0  0  0  0  0  0  0  0  0  0  0  0
   -4.0334   -3.1235    0.2295 H   0  0  0  0  0  0  0  0  0  0  0  0
    0.6829   -0.4293   -1.8426 H   0  0  0  0  0  0  0  0  0  0  0  0
    2.9033   -0.2313   -2.9310 H   0  0  0  0  0  0  0  0  0  0  0  0
    5.7343    0.3459   -2.2261 H   0  0  0  0  0  0  0  0  0  0  0  0
    7.2117    1.0868    1.0457 H   0  0  0  0  0  0  0  0  0  0  0  0
    2.5224    0.4234    1.9882 H   0  0  0  0  0  0  0  0  0  0  0  0
  1  2  1  0
  2  3  1  0
  2  4  1  0
  2  5  1  0
  5  6  2  0
  5 18  1  0
  6  7  1  0
  7  8  2  0
  7 16  1  0
  8  9  1  0
  8 19  1  0
  9 10  1  0
  9 15  1  0
 10 11  1  0
 10 29  1  0
 10 30  1  0
 11 12  1  0
 11 14  1  0
 11 31  1  0
 12 13  1  0
 12 32  1  0
 12 33  1  0
 13 14  1  0
 13 34  1  0
 13 35  1  0
 14 36  1  0
 14 37  1  0
 15 16  2  0
 16 17  1  0
 17 18  2  0
 17 38  1  0
 18 39  1  0
 19 20  2  0
 19 28  1  0
 20 21  1  0
 20 40  1  0
 21 22  2  0
 21 41  1  0
 22 23  1  0
 22 27  1  0
 23 24  1  0
 23 42  1  0
 24 25  1  0
 24 26  2  0
 25 43  1  0
 26 27  1  0
 27 28  2  0
 28 44  1  0
M  END
>  <group_name>  (1) 
JNS

>  <molecule_index>  (1) 
00617

>  <conformer_index>  (1) 
07

>  <method>  (1) 
openff-1.3.0

>  <basis>  (1) 
smirnoff

>  <program>  (1) 
openmm

>  <initial_energy>  (1) 
111.77321537424241 kilocalorie / mole

>  <final_energy>  (1) 
97.67863171156245 kilocalorie / mole

$$$$
