JNS-01554-02
     RDKit          3D

 35 38  0  0  0  0  0  0  0  0999 V2000
    0.1030   -0.1789    2.6330 F   0  0  0  0  0  0  0  0  0  0  0  0
    0.0680   -0.0392    1.2759 C   0  0  0  0  0  0  0  0  0  0  0  0
   -0.7212   -1.0171    0.7455 F   0  0  0  0  0  0  0  0  0  0  0  0
    1.4136   -0.0978    0.6850 N   0  0  0  0  0  0  0  0  0  0  0  0
    2.4428   -0.8212    1.2137 N   0  0  0  0  0  0  0  0  0  0  0  0
    3.5040   -0.4125    0.5718 C   0  0  0  0  0  0  0  0  0  0  0  0
    4.8065   -0.8461    0.7508 C   0  0  0  0  0  0  0  0  0  0  0  0
    5.7814   -0.2590   -0.0559 C   0  0  0  0  0  0  0  0  0  0  0  0
    5.4372    0.7314   -1.0073 C   0  0  0  0  0  0  0  0  0  0  0  0
    4.1442    1.1371   -1.1593 N   0  0  0  0  0  0  0  0  0  0  0  0
    3.2163    0.5583   -0.3729 C   0  0  0  0  0  0  0  0  0  0  0  0
    1.8630    0.7590   -0.3229 C   0  0  0  0  0  0  0  0  0  0  0  0
    1.0765    1.6897   -1.1503 C   0  0  0  0  0  0  0  0  0  0  0  0
   -0.1939    1.3270   -1.6483 C   0  0  0  0  0  0  0  0  0  0  0  0
   -0.9472    2.2135   -2.4313 C   0  0  0  0  0  0  0  0  0  0  0  0
   -2.5151    1.7452   -3.0341 Cl  0  0  0  0  0  0  0  0  0  0  0  0
   -0.4109    3.4694   -2.7223 C   0  0  0  0  0  0  0  0  0  0  0  0
   -0.9420    4.5026   -3.4697 N   0  0  0  0  0  0  0  0  0  0  0  0
   -0.0009    5.4816   -3.6008 C   0  0  0  0  0  0  0  0  0  0  0  0
   -0.1225    6.3858   -4.4149 O   0  0  0  0  0  0  0  0  0  0  0  0
    1.2400    5.1985   -2.7629 C   0  0  0  0  0  0  0  0  0  0  0  0
    0.8461    3.8303   -2.2663 C   0  0  0  0  0  0  0  0  0  0  0  0
    1.6012    2.9526   -1.4851 C   0  0  0  0  0  0  0  0  0  0  0  0
    6.5516    1.3496   -1.8579 C   0  0  0  0  0  0  0  0  0  0  0  0
    6.1063    2.3610   -2.6630 F   0  0  0  0  0  0  0  0  0  0  0  0
    7.5256    1.8588   -1.0466 F   0  0  0  0  0  0  0  0  0  0  0  0
    7.1171    0.3899   -2.6477 F   0  0  0  0  0  0  0  0  0  0  0  0
   -0.3689    0.9369    1.0488 H   0  0  0  0  0  0  0  0  0  0  0  0
    5.0461   -1.6084    1.4877 H   0  0  0  0  0  0  0  0  0  0  0  0
    6.8179   -0.5651    0.0464 H   0  0  0  0  0  0  0  0  0  0  0  0
   -0.6049    0.3395   -1.4617 H   0  0  0  0  0  0  0  0  0  0  0  0
   -1.6059    4.3542   -4.2223 H   0  0  0  0  0  0  0  0  0  0  0  0
    1.3358    5.9212   -1.9495 H   0  0  0  0  0  0  0  0  0  0  0  0
    2.1371    5.1713   -3.3865 H   0  0  0  0  0  0  0  0  0  0  0  0
    2.5903    3.2497   -1.1443 H   0  0  0  0  0  0  0  0  0  0  0  0
  1  2  1  0
  2  3  1  0
  2  4  1  0
  2 28  1  0
  4  5  1  0
  4 12  1  0
  5  6  2  0
  6  7  1  0
  6 11  1  0
  7  8  2  0
  7 29  1  0
  8  9  1  0
  8 30  1  0
  9 10  2  0
  9 24  1  0
 10 11  1  0
 11 12  2  0
 12 13  1  0
 13 14  2  0
 13 23  1  0
 14 15  1  0
 14 31  1  0
 15 16  1  0
 15 17  2  0
 17 18  1  0
 17 22  1  0
 18 19  1  0
 18 32  1  0
 19 20  2  0
 19 21  1  0
 21 22  1  0
 21 33  1  0
 21 34  1  0
 22 23  2  0
 23 35  1  0
 24 25  1  0
 24 26  1  0
 24 27  1  0
M  END
>  <group_name>  (1) 
JNS

>  <molecule_index>  (1) 
01554

>  <conformer_index>  (1) 
02

>  <method>  (1) 
openff-1.3.0

>  <basis>  (1) 
smirnoff

>  <program>  (1) 
openmm

>  <initial_energy>  (1) 
104.21631948598315 kilocalorie / mole

>  <final_energy>  (1) 
92.11863836969749 kilocalorie / mole

$$$$
