JNS-01596-06
     RDKit          3D

 37 41  0  0  0  0  0  0  0  0999 V2000
   -3.5902    2.4376    0.5215 F   0  0  0  0  0  0  0  0  0  0  0  0
   -3.5169    1.0843    0.4595 C   0  0  0  0  0  0  0  0  0  0  0  0
   -4.5659    0.1874    0.5614 N   0  0  0  0  0  0  0  0  0  0  0  0
   -4.1412   -1.1010    0.4530 N   0  0  0  0  0  0  0  0  0  0  0  0
   -2.8469   -1.0039    0.2880 C   0  0  0  0  0  0  0  0  0  0  0  0
   -2.4113    0.3106    0.2847 C   0  0  0  0  0  0  0  0  0  0  0  0
   -1.0587    0.6213    0.1230 C   0  0  0  0  0  0  0  0  0  0  0  0
   -0.1148   -0.4118   -0.0504 C   0  0  0  0  0  0  0  0  0  0  0  0
   -0.5755   -1.7483   -0.0298 C   0  0  0  0  0  0  0  0  0  0  0  0
   -1.9370   -2.0463    0.1346 C   0  0  0  0  0  0  0  0  0  0  0  0
    1.2521   -0.1123   -0.2187 N   0  0  0  0  0  0  0  0  0  0  0  0
    2.1879   -0.7988   -1.0080 C   0  0  0  0  0  0  0  0  0  0  0  0
    3.4036   -0.3245   -0.8564 N   0  0  0  0  0  0  0  0  0  0  0  0
    3.2634    0.7294    0.0303 C   0  0  0  0  0  0  0  0  0  0  0  0
    1.9491    0.8929    0.4252 C   0  0  0  0  0  0  0  0  0  0  0  0
    1.5414    1.8431    1.2908 N   0  0  0  0  0  0  0  0  0  0  0  0
    2.4869    2.6894    1.7887 C   0  0  0  0  0  0  0  0  0  0  0  0
    3.8450    2.5631    1.4073 C   0  0  0  0  0  0  0  0  0  0  0  0
    4.2487    1.5693    0.5149 C   0  0  0  0  0  0  0  0  0  0  0  0
    2.1038    3.8028    2.7722 C   0  0  0  0  0  0  0  0  0  0  0  0
    2.7595    3.6173    3.9560 F   0  0  0  0  0  0  0  0  0  0  0  0
    2.4819    5.0144    2.2670 F   0  0  0  0  0  0  0  0  0  0  0  0
    0.7627    3.8524    3.0298 F   0  0  0  0  0  0  0  0  0  0  0  0
    1.8864   -1.9276   -1.9729 C   0  0  0  0  0  0  0  0  0  0  0  0
    2.9773   -2.4534   -2.9086 C   0  0  0  0  0  0  0  0  0  0  0  0
    2.5170   -3.2982   -1.7291 C   0  0  0  0  0  0  0  0  0  0  0  0
   -5.5323    0.4672    0.7087 H   0  0  0  0  0  0  0  0  0  0  0  0
   -0.7563    1.6643    0.1227 H   0  0  0  0  0  0  0  0  0  0  0  0
    0.1208   -2.5752   -0.1116 H   0  0  0  0  0  0  0  0  0  0  0  0
   -2.2865   -3.0740    0.1538 H   0  0  0  0  0  0  0  0  0  0  0  0
    4.5807    3.2489    1.8167 H   0  0  0  0  0  0  0  0  0  0  0  0
    5.2817    1.4438    0.2031 H   0  0  0  0  0  0  0  0  0  0  0  0
    0.8739   -1.8920   -2.3850 H   0  0  0  0  0  0  0  0  0  0  0  0
    2.6743   -2.7713   -3.9112 H   0  0  0  0  0  0  0  0  0  0  0  0
    3.9735   -2.0013   -2.8523 H   0  0  0  0  0  0  0  0  0  0  0  0
    1.9125   -4.1834   -1.9505 H   0  0  0  0  0  0  0  0  0  0  0  0
    3.2034   -3.3985   -0.8813 H   0  0  0  0  0  0  0  0  0  0  0  0
  1  2  1  0
  2  3  1  0
  2  6  2  0
  3  4  1  0
  3 27  1  0
  4  5  2  0
  5  6  1  0
  5 10  1  0
  6  7  1  0
  7  8  2  0
  7 28  1  0
  8  9  1  0
  8 11  1  0
  9 10  2  0
  9 29  1  0
 10 30  1  0
 11 12  1  0
 11 15  1  0
 12 13  2  0
 12 24  1  0
 13 14  1  0
 14 15  2  0
 14 19  1  0
 15 16  1  0
 16 17  2  0
 17 18  1  0
 17 20  1  0
 18 19  2  0
 18 31  1  0
 19 32  1  0
 20 21  1  0
 20 22  1  0
 20 23  1  0
 24 25  1  0
 24 26  1  0
 24 33  1  0
 25 26  1  0
 25 34  1  0
 25 35  1  0
 26 36  1  0
 26 37  1  0
M  END
>  <group_name>  (1) 
JNS

>  <molecule_index>  (1) 
01596

>  <conformer_index>  (1) 
06

>  <method>  (1) 
openff-1.3.0

>  <basis>  (1) 
smirnoff

>  <program>  (1) 
openmm

>  <initial_energy>  (1) 
160.9496376988005 kilocalorie / mole

>  <final_energy>  (1) 
146.8487402093903 kilocalorie / mole

$$$$
