JNS-01594-04
     RDKit          3D

 39 42  0  0  0  0  0  0  0  0999 V2000
   -0.6164   -0.8010    1.2532 C   0  0  0  0  0  0  0  0  0  0  0  0
   -0.0940   -0.1933   -0.0559 C   0  0  0  0  0  0  0  0  0  0  0  0
   -0.4444   -1.1122   -1.2350 C   0  0  0  0  0  0  0  0  0  0  0  0
    1.4085    0.0301    0.0225 C   0  0  0  0  0  0  0  0  0  0  0  0
    2.2415   -0.9859    0.0836 N   0  0  0  0  0  0  0  0  0  0  0  0
    3.5037   -0.4196    0.0294 C   0  0  0  0  0  0  0  0  0  0  0  0
    3.4382    0.9564   -0.0640 C   0  0  0  0  0  0  0  0  0  0  0  0
    4.5198    1.7576   -0.1302 N   0  0  0  0  0  0  0  0  0  0  0  0
    5.7454    1.1608   -0.1109 C   0  0  0  0  0  0  0  0  0  0  0  0
    5.8632   -0.2480   -0.0209 C   0  0  0  0  0  0  0  0  0  0  0  0
    4.7293   -1.0589    0.0514 C   0  0  0  0  0  0  0  0  0  0  0  0
    7.0279    1.9990   -0.1909 C   0  0  0  0  0  0  0  0  0  0  0  0
    7.7711    1.8120    0.9396 F   0  0  0  0  0  0  0  0  0  0  0  0
    7.7766    1.5952   -1.2597 F   0  0  0  0  0  0  0  0  0  0  0  0
    6.7847    3.3368   -0.3269 F   0  0  0  0  0  0  0  0  0  0  0  0
    2.0902    1.2589   -0.0344 N   0  0  0  0  0  0  0  0  0  0  0  0
    1.5474    2.5586    0.0040 C   0  0  0  0  0  0  0  0  0  0  0  0
    0.4717    2.8802    0.8563 C   0  0  0  0  0  0  0  0  0  0  0  0
   -0.0396    4.1807    0.8678 C   0  0  0  0  0  0  0  0  0  0  0  0
    0.4986    5.1567    0.0715 C   0  0  0  0  0  0  0  0  0  0  0  0
   -0.2312    6.3035    0.3343 N   0  0  0  0  0  0  0  0  0  0  0  0
   -1.2043    6.0832    1.2663 N   0  0  0  0  0  0  0  0  0  0  0  0
   -1.1084    4.8188    1.6054 C   0  0  0  0  0  0  0  0  0  0  0  0
    1.5778    4.8877   -0.7729 C   0  0  0  0  0  0  0  0  0  0  0  0
    2.3331    6.2583   -1.8740 Br  0  0  0  0  0  0  0  0  0  0  0  0
    2.0988    3.5848   -0.7944 C   0  0  0  0  0  0  0  0  0  0  0  0
   -0.3795   -0.1502    2.1001 H   0  0  0  0  0  0  0  0  0  0  0  0
   -1.7024   -0.9291    1.2078 H   0  0  0  0  0  0  0  0  0  0  0  0
   -0.1577   -1.7790    1.4334 H   0  0  0  0  0  0  0  0  0  0  0  0
   -0.5984    0.7594   -0.2300 H   0  0  0  0  0  0  0  0  0  0  0  0
   -0.0776   -0.6801   -2.1715 H   0  0  0  0  0  0  0  0  0  0  0  0
    0.0095   -2.1006   -1.1081 H   0  0  0  0  0  0  0  0  0  0  0  0
   -1.5290   -1.2359   -1.3135 H   0  0  0  0  0  0  0  0  0  0  0  0
    6.8498   -0.7016   -0.0074 H   0  0  0  0  0  0  0  0  0  0  0  0
    4.7849   -2.1415    0.1216 H   0  0  0  0  0  0  0  0  0  0  0  0
    0.0480    2.1400    1.5260 H   0  0  0  0  0  0  0  0  0  0  0  0
   -0.0427    7.2021   -0.1127 H   0  0  0  0  0  0  0  0  0  0  0  0
   -1.7428    4.3235    2.3345 H   0  0  0  0  0  0  0  0  0  0  0  0
    2.9392    3.3722   -1.4492 H   0  0  0  0  0  0  0  0  0  0  0  0
  1  2  1  0
  1 27  1  0
  1 28  1  0
  1 29  1  0
  2  3  1  0
  2  4  1  0
  2 30  1  0
  3 31  1  0
  3 32  1  0
  3 33  1  0
  4  5  2  0
  4 16  1  0
  5  6  1  0
  6  7  2  0
  6 11  1  0
  7  8  1  0
  7 16  1  0
  8  9  2  0
  9 10  1  0
  9 12  1  0
 10 11  2  0
 10 34  1  0
 11 35  1  0
 12 13  1  0
 12 14  1  0
 12 15  1  0
 16 17  1  0
 17 18  2  0
 17 26  1  0
 18 19  1  0
 18 36  1  0
 19 20  2  0
 19 23  1  0
 20 21  1  0
 20 24  1  0
 21 22  1  0
 21 37  1  0
 22 23  2  0
 23 38  1  0
 24 25  1  0
 24 26  2  0
 26 39  1  0
M  END
>  <group_name>  (1) 
JNS

>  <molecule_index>  (1) 
01594

>  <conformer_index>  (1) 
04

>  <method>  (1) 
openff-1.3.0

>  <basis>  (1) 
smirnoff

>  <program>  (1) 
openmm

>  <initial_energy>  (1) 
156.615545747132 kilocalorie / mole

>  <final_energy>  (1) 
146.5060620623966 kilocalorie / mole

$$$$
