JNS-01596-01
     RDKit          3D

 37 41  0  0  0  0  0  0  0  0999 V2000
   -3.5788    1.8546    1.7146 F   0  0  0  0  0  0  0  0  0  0  0  0
   -3.4642    0.5932    1.2283 C   0  0  0  0  0  0  0  0  0  0  0  0
   -4.4576   -0.3681    1.1633 N   0  0  0  0  0  0  0  0  0  0  0  0
   -4.0033   -1.5275    0.6140 N   0  0  0  0  0  0  0  0  0  0  0  0
   -2.7456   -1.2885    0.3442 C   0  0  0  0  0  0  0  0  0  0  0  0
   -2.3627   -0.0062    0.7002 C   0  0  0  0  0  0  0  0  0  0  0  0
   -1.0547    0.4392    0.4932 C   0  0  0  0  0  0  0  0  0  0  0  0
   -0.1036   -0.4191   -0.0961 C   0  0  0  0  0  0  0  0  0  0  0  0
   -0.5083   -1.7294   -0.4398 C   0  0  0  0  0  0  0  0  0  0  0  0
   -1.8253   -2.1642   -0.2252 C   0  0  0  0  0  0  0  0  0  0  0  0
    1.2182    0.0187   -0.3144 N   0  0  0  0  0  0  0  0  0  0  0  0
    2.0689   -0.3242   -1.3768 C   0  0  0  0  0  0  0  0  0  0  0  0
    3.2757    0.1714   -1.2220 N   0  0  0  0  0  0  0  0  0  0  0  0
    3.2124    0.8933   -0.0424 C   0  0  0  0  0  0  0  0  0  0  0  0
    1.9549    0.8306    0.5276 C   0  0  0  0  0  0  0  0  0  0  0  0
    1.6276    1.4404    1.6849 N   0  0  0  0  0  0  0  0  0  0  0  0
    2.5975    2.1642    2.3121 C   0  0  0  0  0  0  0  0  0  0  0  0
    3.8988    2.2614    1.7615 C   0  0  0  0  0  0  0  0  0  0  0  0
    4.2203    1.6180    0.5658 C   0  0  0  0  0  0  0  0  0  0  0  0
    2.3038    2.8951    3.6286 C   0  0  0  0  0  0  0  0  0  0  0  0
    2.5693    4.2275    3.4852 F   0  0  0  0  0  0  0  0  0  0  0  0
    1.0060    2.7645    4.0361 F   0  0  0  0  0  0  0  0  0  0  0  0
    3.1126    2.4086    4.6158 F   0  0  0  0  0  0  0  0  0  0  0  0
    1.6873   -1.1266   -2.6041 C   0  0  0  0  0  0  0  0  0  0  0  0
    2.3942   -2.4554   -2.8692 C   0  0  0  0  0  0  0  0  0  0  0  0
    2.6671   -1.2609   -3.7722 C   0  0  0  0  0  0  0  0  0  0  0  0
   -5.4066   -0.2193    1.4967 H   0  0  0  0  0  0  0  0  0  0  0  0
   -0.7935    1.4528    0.7826 H   0  0  0  0  0  0  0  0  0  0  0  0
    0.2016   -2.4381   -0.8510 H   0  0  0  0  0  0  0  0  0  0  0  0
   -2.1313   -3.1724   -0.4869 H   0  0  0  0  0  0  0  0  0  0  0  0
    4.6554    2.8439    2.2787 H   0  0  0  0  0  0  0  0  0  0  0  0
    5.2083    1.6706    0.1175 H   0  0  0  0  0  0  0  0  0  0  0  0
    0.6295   -1.0436   -2.8694 H   0  0  0  0  0  0  0  0  0  0  0  0
    3.1874   -2.7564   -2.1762 H   0  0  0  0  0  0  0  0  0  0  0  0
    1.7991   -3.2744   -3.2854 H   0  0  0  0  0  0  0  0  0  0  0  0
    3.6448   -0.7739   -3.6897 H   0  0  0  0  0  0  0  0  0  0  0  0
    2.2491   -1.2816   -4.7835 H   0  0  0  0  0  0  0  0  0  0  0  0
  1  2  1  0
  2  3  1  0
  2  6  2  0
  3  4  1  0
  3 27  1  0
  4  5  2  0
  5  6  1  0
  5 10  1  0
  6  7  1  0
  7  8  2  0
  7 28  1  0
  8  9  1  0
  8 11  1  0
  9 10  2  0
  9 29  1  0
 10 30  1  0
 11 12  1  0
 11 15  1  0
 12 13  2  0
 12 24  1  0
 13 14  1  0
 14 15  2  0
 14 19  1  0
 15 16  1  0
 16 17  2  0
 17 18  1  0
 17 20  1  0
 18 19  2  0
 18 31  1  0
 19 32  1  0
 20 21  1  0
 20 22  1  0
 20 23  1  0
 24 25  1  0
 24 26  1  0
 24 33  1  0
 25 26  1  0
 25 34  1  0
 25 35  1  0
 26 36  1  0
 26 37  1  0
M  END
>  <group_name>  (1) 
JNS

>  <molecule_index>  (1) 
01596

>  <conformer_index>  (1) 
01

>  <method>  (1) 
openff-1.3.0

>  <basis>  (1) 
smirnoff

>  <program>  (1) 
openmm

>  <initial_energy>  (1) 
160.94671938661457 kilocalorie / mole

>  <final_energy>  (1) 
146.84873660538003 kilocalorie / mole

$$$$
