JNS-01681-05
     RDKit          3D

 30 33  0  0  0  0  0  0  0  0999 V2000
    0.2260   -1.1353   -2.2089 F   0  0  0  0  0  0  0  0  0  0  0  0
    0.1428   -0.5954   -0.9569 C   0  0  0  0  0  0  0  0  0  0  0  0
   -0.6187    0.5356   -1.0336 F   0  0  0  0  0  0  0  0  0  0  0  0
   -0.5029   -1.4920   -0.1521 F   0  0  0  0  0  0  0  0  0  0  0  0
    1.5470   -0.2412   -0.4503 C   0  0  0  0  0  0  0  0  0  0  0  0
    2.0203   -0.7694    0.7141 N   0  0  0  0  0  0  0  0  0  0  0  0
    3.2653   -0.4265    1.1036 C   0  0  0  0  0  0  0  0  0  0  0  0
    4.0700    0.4392    0.3805 C   0  0  0  0  0  0  0  0  0  0  0  0
    3.6243    0.9941   -0.8047 C   0  0  0  0  0  0  0  0  0  0  0  0
    2.3409    0.6415   -1.2202 C   0  0  0  0  0  0  0  0  0  0  0  0
    5.2932    0.6466    0.9942 N   0  0  0  0  0  0  0  0  0  0  0  0
    5.2344   -0.0824    2.0823 C   0  0  0  0  0  0  0  0  0  0  0  0
    4.0221   -0.7680    2.2162 N   0  0  0  0  0  0  0  0  0  0  0  0
    3.6795   -1.6210    3.2920 C   0  0  0  0  0  0  0  0  0  0  0  0
    4.4535   -1.6260    4.4762 C   0  0  0  0  0  0  0  0  0  0  0  0
    4.1129   -2.4738    5.5349 C   0  0  0  0  0  0  0  0  0  0  0  0
    3.0338   -3.3102    5.4532 C   0  0  0  0  0  0  0  0  0  0  0  0
    2.9893   -3.9911    6.6584 N   0  0  0  0  0  0  0  0  0  0  0  0
    4.0008   -3.6106    7.4917 N   0  0  0  0  0  0  0  0  0  0  0  0
    4.6893   -2.7005    6.8429 C   0  0  0  0  0  0  0  0  0  0  0  0
    2.2445   -3.3389    4.3063 C   0  0  0  0  0  0  0  0  0  0  0  0
    2.5692   -2.4978    3.2318 C   0  0  0  0  0  0  0  0  0  0  0  0
    4.2588    1.6718   -1.3690 H   0  0  0  0  0  0  0  0  0  0  0  0
    1.9436    1.0502   -2.1447 H   0  0  0  0  0  0  0  0  0  0  0  0
    6.0562   -0.1435    2.7882 H   0  0  0  0  0  0  0  0  0  0  0  0
    5.3111   -0.9757    4.6073 H   0  0  0  0  0  0  0  0  0  0  0  0
    2.2821   -4.6887    6.8922 H   0  0  0  0  0  0  0  0  0  0  0  0
    5.5658   -2.1916    7.2327 H   0  0  0  0  0  0  0  0  0  0  0  0
    1.3884   -4.0033    4.2390 H   0  0  0  0  0  0  0  0  0  0  0  0
    1.9397   -2.5597    2.3517 H   0  0  0  0  0  0  0  0  0  0  0  0
  1  2  1  0
  2  3  1  0
  2  4  1  0
  2  5  1  0
  5  6  2  0
  5 10  1  0
  6  7  1  0
  7  8  2  0
  7 13  1  0
  8  9  1  0
  8 11  1  0
  9 10  2  0
  9 23  1  0
 10 24  1  0
 11 12  2  0
 12 13  1  0
 12 25  1  0
 13 14  1  0
 14 15  2  0
 14 22  1  0
 15 16  1  0
 15 26  1  0
 16 17  2  0
 16 20  1  0
 17 18  1  0
 17 21  1  0
 18 19  1  0
 18 27  1  0
 19 20  2  0
 20 28  1  0
 21 22  2  0
 21 29  1  0
 22 30  1  0
M  END
>  <group_name>  (1) 
JNS

>  <molecule_index>  (1) 
01681

>  <conformer_index>  (1) 
05

>  <method>  (1) 
openff-1.3.0

>  <basis>  (1) 
smirnoff

>  <program>  (1) 
openmm

>  <initial_energy>  (1) 
148.6419442331259 kilocalorie / mole

>  <final_energy>  (1) 
138.0834389121225 kilocalorie / mole

$$$$
