JNS-01586-05
     RDKit          3D

 40 44  0  0  0  0  0  0  0  0999 V2000
   -0.4516    1.3657    0.7021 F   0  0  0  0  0  0  0  0  0  0  0  0
    0.0585    0.1446    0.3640 C   0  0  0  0  0  0  0  0  0  0  0  0
   -0.3508   -0.1449   -0.9071 F   0  0  0  0  0  0  0  0  0  0  0  0
   -0.4825   -0.7913    1.2010 F   0  0  0  0  0  0  0  0  0  0  0  0
    1.5893    0.1868    0.4208 C   0  0  0  0  0  0  0  0  0  0  0  0
    2.2726   -0.6029    1.2966 N   0  0  0  0  0  0  0  0  0  0  0  0
    3.6182   -0.5276    1.2860 C   0  0  0  0  0  0  0  0  0  0  0  0
    4.5401   -1.1739    2.0666 C   0  0  0  0  0  0  0  0  0  0  0  0
    5.7829   -0.7129    1.6039 N   0  0  0  0  0  0  0  0  0  0  0  0
    5.6187    0.2352    0.6362 N   0  0  0  0  0  0  0  0  0  0  0  0
    4.3299    0.3136    0.4482 C   0  0  0  0  0  0  0  0  0  0  0  0
    3.6671    1.1308   -0.4516 C   0  0  0  0  0  0  0  0  0  0  0  0
    2.2750    1.0570   -0.4600 C   0  0  0  0  0  0  0  0  0  0  0  0
    7.0556   -1.2329    1.9204 C   0  0  0  0  0  0  0  0  0  0  0  0
    8.1967   -0.4155    1.7974 C   0  0  0  0  0  0  0  0  0  0  0  0
    9.4725   -0.9059    2.0997 C   0  0  0  0  0  0  0  0  0  0  0  0
    9.6329   -2.2283    2.5196 C   0  0  0  0  0  0  0  0  0  0  0  0
    8.5174   -3.0620    2.6262 C   0  0  0  0  0  0  0  0  0  0  0  0
    7.2419   -2.5721    2.3220 C   0  0  0  0  0  0  0  0  0  0  0  0
    4.2351   -2.0734    3.1951 C   0  0  0  0  0  0  0  0  0  0  0  0
    3.1668   -2.9906    3.1170 C   0  0  0  0  0  0  0  0  0  0  0  0
    2.8772   -3.8484    4.1885 C   0  0  0  0  0  0  0  0  0  0  0  0
    3.6604   -3.7798    5.3410 C   0  0  0  0  0  0  0  0  0  0  0  0
    3.6434   -4.4616    6.5460 N   0  0  0  0  0  0  0  0  0  0  0  0
    4.6265   -4.0274    7.3877 N   0  0  0  0  0  0  0  0  0  0  0  0
    5.2670   -3.0769    6.7472 C   0  0  0  0  0  0  0  0  0  0  0  0
    4.6917   -2.8833    5.4350 C   0  0  0  0  0  0  0  0  0  0  0  0
    4.9921   -2.0152    4.3818 C   0  0  0  0  0  0  0  0  0  0  0  0
    4.2145    1.7961   -1.1138 H   0  0  0  0  0  0  0  0  0  0  0  0
    1.7085    1.6766   -1.1480 H   0  0  0  0  0  0  0  0  0  0  0  0
    8.0940    0.6166    1.4715 H   0  0  0  0  0  0  0  0  0  0  0  0
   10.3392   -0.2570    2.0055 H   0  0  0  0  0  0  0  0  0  0  0  0
   10.6233   -2.6099    2.7537 H   0  0  0  0  0  0  0  0  0  0  0  0
    8.6401   -4.0961    2.9376 H   0  0  0  0  0  0  0  0  0  0  0  0
    6.4027   -3.2588    2.3834 H   0  0  0  0  0  0  0  0  0  0  0  0
    2.5568   -3.0392    2.2188 H   0  0  0  0  0  0  0  0  0  0  0  0
    2.0516   -4.5498    4.1182 H   0  0  0  0  0  0  0  0  0  0  0  0
    2.9655   -5.1883    6.7779 H   0  0  0  0  0  0  0  0  0  0  0  0
    6.1093   -2.5189    7.1454 H   0  0  0  0  0  0  0  0  0  0  0  0
    5.8029   -1.3000    4.4875 H   0  0  0  0  0  0  0  0  0  0  0  0
  1  2  1  0
  2  3  1  0
  2  4  1  0
  2  5  1  0
  5  6  2  0
  5 13  1  0
  6  7  1  0
  7  8  2  0
  7 11  1  0
  8  9  1  0
  8 20  1  0
  9 10  1  0
  9 14  1  0
 10 11  2  0
 11 12  1  0
 12 13  2  0
 12 29  1  0
 13 30  1  0
 14 15  2  0
 14 19  1  0
 15 16  1  0
 15 31  1  0
 16 17  2  0
 16 32  1  0
 17 18  1  0
 17 33  1  0
 18 19  2  0
 18 34  1  0
 19 35  1  0
 20 21  2  0
 20 28  1  0
 21 22  1  0
 21 36  1  0
 22 23  2  0
 22 37  1  0
 23 24  1  0
 23 27  1  0
 24 25  1  0
 24 38  1  0
 25 26  2  0
 26 27  1  0
 26 39  1  0
 27 28  2  0
 28 40  1  0
M  END
>  <group_name>  (1) 
JNS

>  <molecule_index>  (1) 
01586

>  <conformer_index>  (1) 
05

>  <method>  (1) 
openff-1.3.0

>  <basis>  (1) 
smirnoff

>  <program>  (1) 
openmm

>  <initial_energy>  (1) 
186.75575459453216 kilocalorie / mole

>  <final_energy>  (1) 
173.3907375415783 kilocalorie / mole

$$$$
