JNS-02466-04
     RDKit          3D

 53 56  0  0  0  0  0  0  0  0999 V2000
    0.2528    1.5256   -1.5067 C   0  0  0  0  0  0  0  0  0  0  0  0
    0.3021    0.4489   -0.4110 C   0  0  2  0  0  0  0  0  0  0  0  0
    1.6915    0.1849    0.0471 N   0  0  0  0  0  0  0  0  0  0  0  0
    2.2228    1.1424    1.0431 C   0  0  0  0  0  0  0  0  0  0  0  0
    3.7367    0.9894    1.2639 C   0  0  0  0  0  0  0  0  0  0  0  0
    4.1577   -0.4734    1.1060 C   0  0  0  0  0  0  0  0  0  0  0  0
    3.8780   -0.9526   -0.3354 C   0  0  2  0  0  0  0  0  0  0  0  0
    2.6646   -0.2466   -0.9816 C   0  0  0  0  0  0  0  0  0  0  0  0
    3.7423   -2.4628   -0.3403 C   0  0  0  0  0  0  0  0  0  0  0  0
    2.5571   -3.1063    0.0096 C   0  0  0  0  0  0  0  0  0  0  0  0
    2.4507   -4.5109   -0.0313 C   0  0  0  0  0  0  0  0  0  0  0  0
    3.5140   -5.2723   -0.4065 N   0  0  0  0  0  0  0  0  0  0  0  0
    4.6595   -4.6628   -0.7538 C   0  0  0  0  0  0  0  0  0  0  0  0
    5.8255   -5.5123   -1.1673 C   0  0  0  0  0  0  0  0  0  0  0  0
    4.8010   -3.2737   -0.7320 C   0  0  0  0  0  0  0  0  0  0  0  0
    1.1316   -5.1844    0.3759 C   0  0  0  0  0  0  0  0  0  0  0  0
    0.3566   -5.3791   -0.7306 F   0  0  0  0  0  0  0  0  0  0  0  0
    1.3413   -6.3963    0.9717 F   0  0  0  0  0  0  0  0  0  0  0  0
    0.4281   -4.4220    1.2670 F   0  0  0  0  0  0  0  0  0  0  0  0
   -0.4161   -0.8336   -0.8365 C   0  0  0  0  0  0  0  0  0  0  0  0
   -0.3303   -1.2778   -2.1102 N   0  0  0  0  0  0  0  0  0  0  0  0
   -0.9770   -2.4106   -2.4378 C   0  0  0  0  0  0  0  0  0  0  0  0
   -1.7906   -3.1257   -1.5186 C   0  0  0  0  0  0  0  0  0  0  0  0
   -2.4981   -4.2632   -1.8643 O   0  0  0  0  0  0  0  0  0  0  0  0
   -2.5189   -4.5434   -3.2756 C   0  0  0  0  0  0  0  0  0  0  0  0
   -1.1663   -4.2407   -3.9201 C   0  0  0  0  0  0  0  0  0  0  0  0
   -0.8008   -2.8626   -3.7282 O   0  0  0  0  0  0  0  0  0  0  0  0
   -1.8766   -2.6674   -0.2125 C   0  0  0  0  0  0  0  0  0  0  0  0
   -1.1782   -1.5144    0.1247 C   0  0  0  0  0  0  0  0  0  0  0  0
   -0.7869    1.7339   -1.7763 H   0  0  0  0  0  0  0  0  0  0  0  0
    0.7096    2.4541   -1.1542 H   0  0  0  0  0  0  0  0  0  0  0  0
    0.7799    1.1976   -2.4076 H   0  0  0  0  0  0  0  0  0  0  0  0
   -0.2566    0.8451    0.4429 H   0  0  0  0  0  0  0  0  0  0  0  0
    1.6993    0.9868    1.9921 H   0  0  0  0  0  0  0  0  0  0  0  0
    2.0275    2.1717    0.7260 H   0  0  0  0  0  0  0  0  0  0  0  0
    4.0046    1.3640    2.2563 H   0  0  0  0  0  0  0  0  0  0  0  0
    4.2746    1.5931    0.5259 H   0  0  0  0  0  0  0  0  0  0  0  0
    3.5864   -1.0762    1.8205 H   0  0  0  0  0  0  0  0  0  0  0  0
    5.2192   -0.5982    1.3415 H   0  0  0  0  0  0  0  0  0  0  0  0
    4.7420   -0.6919   -0.9545 H   0  0  0  0  0  0  0  0  0  0  0  0
    3.0111    0.6351   -1.5309 H   0  0  0  0  0  0  0  0  0  0  0  0
    2.2085   -0.9175   -1.7163 H   0  0  0  0  0  0  0  0  0  0  0  0
    1.7027   -2.5107    0.3148 H   0  0  0  0  0  0  0  0  0  0  0  0
    6.6988   -5.2734   -0.5545 H   0  0  0  0  0  0  0  0  0  0  0  0
    5.5892   -6.5730   -1.0391 H   0  0  0  0  0  0  0  0  0  0  0  0
    6.0622   -5.3313   -2.2192 H   0  0  0  0  0  0  0  0  0  0  0  0
    5.7487   -2.8342   -1.0226 H   0  0  0  0  0  0  0  0  0  0  0  0
   -3.2961   -3.9425   -3.7579 H   0  0  0  0  0  0  0  0  0  0  0  0
   -2.7643   -5.5982   -3.4297 H   0  0  0  0  0  0  0  0  0  0  0  0
   -0.4004   -4.8901   -3.4829 H   0  0  0  0  0  0  0  0  0  0  0  0
   -1.2172   -4.4568   -4.9913 H   0  0  0  0  0  0  0  0  0  0  0  0
   -2.4737   -3.2079    0.5171 H   0  0  0  0  0  0  0  0  0  0  0  0
   -1.2170   -1.1378    1.1413 H   0  0  0  0  0  0  0  0  0  0  0  0
  1  2  1  0
  1 30  1  0
  1 31  1  0
  1 32  1  0
  2  3  1  0
  2 20  1  0
  2 33  1  1
  3  4  1  0
  3  8  1  0
  4  5  1  0
  4 34  1  0
  4 35  1  0
  5  6  1  0
  5 36  1  0
  5 37  1  0
  6  7  1  0
  6 38  1  0
  6 39  1  0
  7  8  1  0
  7  9  1  0
  7 40  1  6
  8 41  1  0
  8 42  1  0
  9 10  2  0
  9 15  1  0
 10 11  1  0
 10 43  1  0
 11 12  2  0
 11 16  1  0
 12 13  1  0
 13 14  1  0
 13 15  2  0
 14 44  1  0
 14 45  1  0
 14 46  1  0
 15 47  1  0
 16 17  1  0
 16 18  1  0
 16 19  1  0
 20 21  2  0
 20 29  1  0
 21 22  1  0
 22 23  2  0
 22 27  1  0
 23 24  1  0
 23 28  1  0
 24 25  1  0
 25 26  1  0
 25 48  1  0
 25 49  1  0
 26 27  1  0
 26 50  1  0
 26 51  1  0
 28 29  2  0
 28 52  1  0
 29 53  1  0
M  END
>  <group_name>  (1) 
JNS

>  <molecule_index>  (1) 
02466

>  <conformer_index>  (1) 
04

>  <method>  (1) 
openff-1.3.0

>  <basis>  (1) 
smirnoff

>  <program>  (1) 
openmm

>  <initial_energy>  (1) 
117.49062070902121 kilocalorie / mole

>  <final_energy>  (1) 
107.73078328665953 kilocalorie / mole

$$$$
