JNS-01356-02
     RDKit          3D

 33 36  0  0  0  0  0  0  0  0999 V2000
   -0.9164   -3.4100   -0.5295 F   0  0  0  0  0  0  0  0  0  0  0  0
   -0.7559   -2.7189    0.6367 C   0  0  0  0  0  0  0  0  0  0  0  0
   -1.6361   -3.2227    1.5512 F   0  0  0  0  0  0  0  0  0  0  0  0
    0.4978   -2.9624    1.1181 F   0  0  0  0  0  0  0  0  0  0  0  0
   -0.9990   -1.2238    0.3935 C   0  0  0  0  0  0  0  0  0  0  0  0
   -2.2039   -0.6889    0.4992 N   0  0  0  0  0  0  0  0  0  0  0  0
   -2.0255    0.6734    0.3385 C   0  0  0  0  0  0  0  0  0  0  0  0
   -0.6998    0.9862    0.1297 C   0  0  0  0  0  0  0  0  0  0  0  0
   -0.2454    2.2412   -0.0556 N   0  0  0  0  0  0  0  0  0  0  0  0
   -1.1595    3.2522   -0.0276 C   0  0  0  0  0  0  0  0  0  0  0  0
   -2.5325    2.9798    0.1870 C   0  0  0  0  0  0  0  0  0  0  0  0
   -2.9818    1.6718    0.3739 C   0  0  0  0  0  0  0  0  0  0  0  0
   -0.7212    4.7096   -0.2199 C   0  0  0  0  0  0  0  0  0  0  0  0
   -1.1257    5.4565    0.8496 F   0  0  0  0  0  0  0  0  0  0  0  0
    0.6331    4.8451   -0.3418 F   0  0  0  0  0  0  0  0  0  0  0  0
   -1.3079    5.2216   -1.3414 F   0  0  0  0  0  0  0  0  0  0  0  0
   -0.0338   -0.2259    0.1231 N   0  0  0  0  0  0  0  0  0  0  0  0
    1.3226   -0.3924   -0.2240 C   0  0  0  0  0  0  0  0  0  0  0  0
    2.2907    0.5216    0.2369 C   0  0  0  0  0  0  0  0  0  0  0  0
    3.6279    0.3548   -0.1183 C   0  0  0  0  0  0  0  0  0  0  0  0
    4.0328   -0.6857   -0.9228 C   0  0  0  0  0  0  0  0  0  0  0  0
    5.3987   -0.6013   -1.1070 N   0  0  0  0  0  0  0  0  0  0  0  0
    5.7452    0.4548   -0.4284 C   0  0  0  0  0  0  0  0  0  0  0  0
    7.0193    0.9026   -0.3462 O   0  0  0  0  0  0  0  0  0  0  0  0
    4.7168    1.1019    0.2128 O   0  0  0  0  0  0  0  0  0  0  0  0
    3.0996   -1.6055   -1.4151 C   0  0  0  0  0  0  0  0  0  0  0  0
    3.6338   -3.0504   -2.5532 Br  0  0  0  0  0  0  0  0  0  0  0  0
    1.7487   -1.4453   -1.0653 C   0  0  0  0  0  0  0  0  0  0  0  0
   -3.2437    3.8005    0.2059 H   0  0  0  0  0  0  0  0  0  0  0  0
   -4.0279    1.4283    0.5409 H   0  0  0  0  0  0  0  0  0  0  0  0
    2.0214    1.3584    0.8744 H   0  0  0  0  0  0  0  0  0  0  0  0
    6.9942    1.6964    0.2018 H   0  0  0  0  0  0  0  0  0  0  0  0
    1.0360   -2.1461   -1.4852 H   0  0  0  0  0  0  0  0  0  0  0  0
  1  2  1  0
  2  3  1  0
  2  4  1  0
  2  5  1  0
  5  6  2  0
  5 17  1  0
  6  7  1  0
  7  8  2  0
  7 12  1  0
  8  9  1  0
  8 17  1  0
  9 10  2  0
 10 11  1  0
 10 13  1  0
 11 12  2  0
 11 29  1  0
 12 30  1  0
 13 14  1  0
 13 15  1  0
 13 16  1  0
 17 18  1  0
 18 19  2  0
 18 28  1  0
 19 20  1  0
 19 31  1  0
 20 21  2  0
 20 25  1  0
 21 22  1  0
 21 26  1  0
 22 23  2  0
 23 24  1  0
 23 25  1  0
 24 32  1  0
 26 27  1  0
 26 28  2  0
 28 33  1  0
M  END
>  <group_name>  (1) 
JNS

>  <molecule_index>  (1) 
01356

>  <conformer_index>  (1) 
02

>  <method>  (1) 
openff-1.3.0

>  <basis>  (1) 
smirnoff

>  <program>  (1) 
openmm

>  <initial_energy>  (1) 
132.04018633347127 kilocalorie / mole

>  <final_energy>  (1) 
120.17053000228138 kilocalorie / mole

$$$$
