JNS-01845-02
     RDKit          3D

 36 39  0  0  0  0  0  0  0  0999 V2000
   -0.0268    0.3082   -0.0972 C   0  0  0  0  0  0  0  0  0  0  0  0
    1.4493    0.0054   -0.1512 C   0  0  0  0  0  0  0  0  0  0  0  0
    2.4086    0.9937   -0.2108 C   0  0  0  0  0  0  0  0  0  0  0  0
    3.6938    0.3458   -0.1060 C   0  0  0  0  0  0  0  0  0  0  0  0
    3.4807   -1.0186    0.0300 C   0  0  0  0  0  0  0  0  0  0  0  0
    4.4840   -1.9116    0.1434 N   0  0  0  0  0  0  0  0  0  0  0  0
    5.7613   -1.4384    0.1333 C   0  0  0  0  0  0  0  0  0  0  0  0
    6.0202   -0.0532    0.0043 C   0  0  0  0  0  0  0  0  0  0  0  0
    4.9780    0.8631   -0.1187 C   0  0  0  0  0  0  0  0  0  0  0  0
    6.9521   -2.3964    0.2709 C   0  0  0  0  0  0  0  0  0  0  0  0
    7.7195   -2.3439   -0.8576 F   0  0  0  0  0  0  0  0  0  0  0  0
    7.7300   -2.0187    1.3286 F   0  0  0  0  0  0  0  0  0  0  0  0
    6.5722   -3.6942    0.4712 F   0  0  0  0  0  0  0  0  0  0  0  0
    2.0957   -1.2396   -0.0104 N   0  0  0  0  0  0  0  0  0  0  0  0
    1.4704   -2.5028    0.0349 C   0  0  0  0  0  0  0  0  0  0  0  0
    1.9818   -3.5345    0.8490 C   0  0  0  0  0  0  0  0  0  0  0  0
    1.3497   -4.7794    0.8797 C   0  0  0  0  0  0  0  0  0  0  0  0
    0.2209   -5.0206    0.1151 C   0  0  0  0  0  0  0  0  0  0  0  0
   -0.2012   -6.3221    0.3254 N   0  0  0  0  0  0  0  0  0  0  0  0
    0.7015   -6.9566    1.1287 C   0  0  0  0  0  0  0  0  0  0  0  0
    0.6962   -8.1721    1.2668 O   0  0  0  0  0  0  0  0  0  0  0  0
    1.7692   -6.0038    1.6516 C   0  0  0  0  0  0  0  0  0  0  0  0
   -0.3018   -4.0282   -0.7180 C   0  0  0  0  0  0  0  0  0  0  0  0
   -1.3942   -4.2684   -1.4875 F   0  0  0  0  0  0  0  0  0  0  0  0
    0.3293   -2.7775   -0.7508 C   0  0  0  0  0  0  0  0  0  0  0  0
   -0.1938    1.2909    0.3540 H   0  0  0  0  0  0  0  0  0  0  0  0
   -0.4481    0.3134   -1.1065 H   0  0  0  0  0  0  0  0  0  0  0  0
   -0.5503   -0.4351    0.5113 H   0  0  0  0  0  0  0  0  0  0  0  0
    2.2311    2.0629   -0.2879 H   0  0  0  0  0  0  0  0  0  0  0  0
    7.0478    0.2981    0.0000 H   0  0  0  0  0  0  0  0  0  0  0  0
    5.1589    1.9299   -0.2212 H   0  0  0  0  0  0  0  0  0  0  0  0
    2.8635   -3.3754    1.4631 H   0  0  0  0  0  0  0  0  0  0  0  0
   -0.7087   -6.8607   -0.3687 H   0  0  0  0  0  0  0  0  0  0  0  0
    1.6739   -5.8614    2.7302 H   0  0  0  0  0  0  0  0  0  0  0  0
    2.7703   -6.3435    1.3754 H   0  0  0  0  0  0  0  0  0  0  0  0
   -0.0702   -2.0304   -1.4258 H   0  0  0  0  0  0  0  0  0  0  0  0
  1  2  1  0
  1 26  1  0
  1 27  1  0
  1 28  1  0
  2  3  2  0
  2 14  1  0
  3  4  1  0
  3 29  1  0
  4  5  2  0
  4  9  1  0
  5  6  1  0
  5 14  1  0
  6  7  2  0
  7  8  1  0
  7 10  1  0
  8  9  2  0
  8 30  1  0
  9 31  1  0
 10 11  1  0
 10 12  1  0
 10 13  1  0
 14 15  1  0
 15 16  2  0
 15 25  1  0
 16 17  1  0
 16 32  1  0
 17 18  2  0
 17 22  1  0
 18 19  1  0
 18 23  1  0
 19 20  1  0
 19 33  1  0
 20 21  2  0
 20 22  1  0
 22 34  1  0
 22 35  1  0
 23 24  1  0
 23 25  2  0
 25 36  1  0
M  END
>  <group_name>  (1) 
JNS

>  <molecule_index>  (1) 
01845

>  <conformer_index>  (1) 
02

>  <method>  (1) 
openff-1.3.0

>  <basis>  (1) 
smirnoff

>  <program>  (1) 
openmm

>  <initial_energy>  (1) 
111.84217283864021 kilocalorie / mole

>  <final_energy>  (1) 
100.63701231683436 kilocalorie / mole

$$$$
