JNS-01554-00
     RDKit          3D

 35 38  0  0  0  0  0  0  0  0999 V2000
   -0.3174   -0.8546    1.5772 F   0  0  0  0  0  0  0  0  0  0  0  0
   -0.0668   -0.2079    0.4019 C   0  0  0  0  0  0  0  0  0  0  0  0
   -0.7999   -0.7912   -0.5899 F   0  0  0  0  0  0  0  0  0  0  0  0
    1.3622   -0.2264    0.0545 N   0  0  0  0  0  0  0  0  0  0  0  0
    2.2420   -1.1708    0.4977 N   0  0  0  0  0  0  0  0  0  0  0  0
    3.4223   -0.6878    0.2151 C   0  0  0  0  0  0  0  0  0  0  0  0
    4.6497   -1.2741    0.4727 C   0  0  0  0  0  0  0  0  0  0  0  0
    5.7822   -0.5619    0.0771 C   0  0  0  0  0  0  0  0  0  0  0  0
    5.6639    0.6990   -0.5565 C   0  0  0  0  0  0  0  0  0  0  0  0
    4.4397    1.2498   -0.7960 N   0  0  0  0  0  0  0  0  0  0  0  0
    3.3587    0.5474   -0.4078 C   0  0  0  0  0  0  0  0  0  0  0  0
    2.0305    0.8487   -0.5341 C   0  0  0  0  0  0  0  0  0  0  0  0
    1.4523    2.0551   -1.1450 C   0  0  0  0  0  0  0  0  0  0  0  0
    2.0292    3.3181   -0.8979 C   0  0  0  0  0  0  0  0  0  0  0  0
    1.4936    4.4843   -1.4628 C   0  0  0  0  0  0  0  0  0  0  0  0
    2.2170    6.0379   -1.1395 Cl  0  0  0  0  0  0  0  0  0  0  0  0
    0.3732    4.3710   -2.2878 C   0  0  0  0  0  0  0  0  0  0  0  0
   -0.3227    5.3557   -2.9617 N   0  0  0  0  0  0  0  0  0  0  0  0
   -1.2543    4.7669   -3.7649 C   0  0  0  0  0  0  0  0  0  0  0  0
   -1.8316    5.3829   -4.6491 O   0  0  0  0  0  0  0  0  0  0  0  0
   -1.3365    3.2624   -3.5361 C   0  0  0  0  0  0  0  0  0  0  0  0
   -0.1900    3.1351   -2.5639 C   0  0  0  0  0  0  0  0  0  0  0  0
    0.3414    1.9693   -2.0062 C   0  0  0  0  0  0  0  0  0  0  0  0
    6.9440    1.4363   -0.9630 C   0  0  0  0  0  0  0  0  0  0  0  0
    6.7013    2.6631   -1.5145 F   0  0  0  0  0  0  0  0  0  0  0  0
    7.7408    1.6168    0.1319 F   0  0  0  0  0  0  0  0  0  0  0  0
    7.6382    0.6894   -1.8717 F   0  0  0  0  0  0  0  0  0  0  0  0
   -0.3798    0.8334    0.5160 H   0  0  0  0  0  0  0  0  0  0  0  0
    4.7159   -2.2432    0.9602 H   0  0  0  0  0  0  0  0  0  0  0  0
    6.7683   -0.9789    0.2567 H   0  0  0  0  0  0  0  0  0  0  0  0
    2.9064    3.4012   -0.2607 H   0  0  0  0  0  0  0  0  0  0  0  0
    0.1051    6.2279   -3.2553 H   0  0  0  0  0  0  0  0  0  0  0  0
   -1.1572    2.7163   -4.4654 H   0  0  0  0  0  0  0  0  0  0  0  0
   -2.2934    2.9898   -3.0854 H   0  0  0  0  0  0  0  0  0  0  0  0
   -0.0897    1.0080   -2.2709 H   0  0  0  0  0  0  0  0  0  0  0  0
  1  2  1  0
  2  3  1  0
  2  4  1  0
  2 28  1  0
  4  5  1  0
  4 12  1  0
  5  6  2  0
  6  7  1  0
  6 11  1  0
  7  8  2  0
  7 29  1  0
  8  9  1  0
  8 30  1  0
  9 10  2  0
  9 24  1  0
 10 11  1  0
 11 12  2  0
 12 13  1  0
 13 14  2  0
 13 23  1  0
 14 15  1  0
 14 31  1  0
 15 16  1  0
 15 17  2  0
 17 18  1  0
 17 22  1  0
 18 19  1  0
 18 32  1  0
 19 20  2  0
 19 21  1  0
 21 22  1  0
 21 33  1  0
 21 34  1  0
 22 23  2  0
 23 35  1  0
 24 25  1  0
 24 26  1  0
 24 27  1  0
M  END
>  <group_name>  (1) 
JNS

>  <molecule_index>  (1) 
01554

>  <conformer_index>  (1) 
00

>  <method>  (1) 
openff-1.3.0

>  <basis>  (1) 
smirnoff

>  <program>  (1) 
openmm

>  <initial_energy>  (1) 
106.07532975746567 kilocalorie / mole

>  <final_energy>  (1) 
93.50172757125122 kilocalorie / mole

$$$$
