JNS-01448-08
     RDKit          3D

 43 47  0  0  0  0  0  0  0  0999 V2000
   -1.2332   -3.4884    0.7535 F   0  0  0  0  0  0  0  0  0  0  0  0
   -0.3159   -2.7229    0.0912 C   0  0  0  0  0  0  0  0  0  0  0  0
    0.8672   -2.8676    0.7567 F   0  0  0  0  0  0  0  0  0  0  0  0
   -0.1710   -3.2385   -1.1649 F   0  0  0  0  0  0  0  0  0  0  0  0
   -0.7674   -1.2584    0.0104 C   0  0  0  0  0  0  0  0  0  0  0  0
   -2.0475   -0.9280   -0.0364 N   0  0  0  0  0  0  0  0  0  0  0  0
   -2.0798    0.4535    0.0247 C   0  0  0  0  0  0  0  0  0  0  0  0
   -0.8109    0.9859    0.1080 C   0  0  0  0  0  0  0  0  0  0  0  0
   -0.5576    2.3080    0.1832 N   0  0  0  0  0  0  0  0  0  0  0  0
   -1.6250    3.1556    0.1794 C   0  0  0  0  0  0  0  0  0  0  0  0
   -2.9466    2.6538    0.0980 C   0  0  0  0  0  0  0  0  0  0  0  0
   -3.1872    1.2817    0.0189 C   0  0  0  0  0  0  0  0  0  0  0  0
   -1.4199    4.6730    0.2724 C   0  0  0  0  0  0  0  0  0  0  0  0
   -1.8868    5.2703   -0.8632 F   0  0  0  0  0  0  0  0  0  0  0  0
   -2.1241    5.1692    1.3324 F   0  0  0  0  0  0  0  0  0  0  0  0
   -0.1092    5.0235    0.4360 F   0  0  0  0  0  0  0  0  0  0  0  0
    0.0442   -0.1012    0.0595 N   0  0  0  0  0  0  0  0  0  0  0  0
    1.4479   -0.0153   -0.0519 C   0  0  0  0  0  0  0  0  0  0  0  0
    2.1636    0.9479    0.6875 C   0  0  0  0  0  0  0  0  0  0  0  0
    3.5528    1.0212    0.5676 C   0  0  0  0  0  0  0  0  0  0  0  0
    4.2375    0.1787   -0.2667 C   0  0  0  0  0  0  0  0  0  0  0  0
    5.5745    0.5026   -0.1068 N   0  0  0  0  0  0  0  0  0  0  0  0
    5.7491    1.5299    0.7747 N   0  0  0  0  0  0  0  0  0  0  0  0
    4.5493    1.8620    1.1926 C   0  0  0  0  0  0  0  0  0  0  0  0
    3.5693   -0.7746   -1.0432 C   0  0  0  0  0  0  0  0  0  0  0  0
    2.1708   -0.8574   -0.9264 C   0  0  0  0  0  0  0  0  0  0  0  0
    4.2968   -1.6608   -1.9565 C   0  0  0  0  0  0  0  0  0  0  0  0
    5.2731   -1.1497   -2.8280 C   0  0  0  0  0  0  0  0  0  0  0  0
    5.9672   -1.9991   -3.6975 C   0  0  0  0  0  0  0  0  0  0  0  0
    5.6893   -3.3693   -3.7071 C   0  0  0  0  0  0  0  0  0  0  0  0
    4.7140   -3.8879   -2.8499 C   0  0  0  0  0  0  0  0  0  0  0  0
    4.0203   -3.0373   -1.9813 C   0  0  0  0  0  0  0  0  0  0  0  0
   -3.7826    3.3472    0.0972 H   0  0  0  0  0  0  0  0  0  0  0  0
   -4.1883    0.8636   -0.0441 H   0  0  0  0  0  0  0  0  0  0  0  0
    1.6521    1.6269    1.3640 H   0  0  0  0  0  0  0  0  0  0  0  0
    6.3310   -0.0049   -0.5678 H   0  0  0  0  0  0  0  0  0  0  0  0
    4.3370    2.6514    1.9076 H   0  0  0  0  0  0  0  0  0  0  0  0
    1.6538   -1.5672   -1.5616 H   0  0  0  0  0  0  0  0  0  0  0  0
    5.4785   -0.0833   -2.8504 H   0  0  0  0  0  0  0  0  0  0  0  0
    6.7162   -1.5931   -4.3718 H   0  0  0  0  0  0  0  0  0  0  0  0
    6.2263   -4.0295   -4.3827 H   0  0  0  0  0  0  0  0  0  0  0  0
    4.4949   -4.9521   -2.8565 H   0  0  0  0  0  0  0  0  0  0  0  0
    3.2723   -3.4544   -1.3128 H   0  0  0  0  0  0  0  0  0  0  0  0
  1  2  1  0
  2  3  1  0
  2  4  1  0
  2  5  1  0
  5  6  2  0
  5 17  1  0
  6  7  1  0
  7  8  2  0
  7 12  1  0
  8  9  1  0
  8 17  1  0
  9 10  2  0
 10 11  1  0
 10 13  1  0
 11 12  2  0
 11 33  1  0
 12 34  1  0
 13 14  1  0
 13 15  1  0
 13 16  1  0
 17 18  1  0
 18 19  2  0
 18 26  1  0
 19 20  1  0
 19 35  1  0
 20 21  2  0
 20 24  1  0
 21 22  1  0
 21 25  1  0
 22 23  1  0
 22 36  1  0
 23 24  2  0
 24 37  1  0
 25 26  2  0
 25 27  1  0
 26 38  1  0
 27 28  2  0
 27 32  1  0
 28 29  1  0
 28 39  1  0
 29 30  2  0
 29 40  1  0
 30 31  1  0
 30 41  1  0
 31 32  2  0
 31 42  1  0
 32 43  1  0
M  END
>  <group_name>  (1) 
JNS

>  <molecule_index>  (1) 
01448

>  <conformer_index>  (1) 
08

>  <method>  (1) 
openff-1.3.0

>  <basis>  (1) 
smirnoff

>  <program>  (1) 
openmm

>  <initial_energy>  (1) 
219.20410954016558 kilocalorie / mole

>  <final_energy>  (1) 
206.2671975237112 kilocalorie / mole

$$$$
