JNS-01589-06
     RDKit          3D

 43 47  0  0  0  0  0  0  0  0999 V2000
   -2.7437    1.6170    2.1023 C   0  0  0  0  0  0  0  0  0  0  0  0
   -2.0504    0.8326    1.0169 C   0  0  0  0  0  0  0  0  0  0  0  0
   -2.7821    0.2318   -0.0164 C   0  0  0  0  0  0  0  0  0  0  0  0
   -4.0810    0.2443   -0.1883 N   0  0  0  0  0  0  0  0  0  0  0  0
   -4.2917   -0.4571   -1.3316 N   0  0  0  0  0  0  0  0  0  0  0  0
   -3.0987   -0.9125   -1.8739 C   0  0  0  0  0  0  0  0  0  0  0  0
   -2.1352   -0.4684   -1.0227 C   0  0  0  0  0  0  0  0  0  0  0  0
   -0.7465   -0.6007   -1.0332 C   0  0  0  0  0  0  0  0  0  0  0  0
    0.0150   -0.0240   -0.0004 C   0  0  0  0  0  0  0  0  0  0  0  0
   -0.6507    0.6997    1.0090 C   0  0  0  0  0  0  0  0  0  0  0  0
    1.4815   -0.1569    0.0224 C   0  0  0  0  0  0  0  0  0  0  0  0
    2.3923    0.8019    0.3772 C   0  0  0  0  0  0  0  0  0  0  0  0
    2.1977    2.0691    0.7910 N   0  0  0  0  0  0  0  0  0  0  0  0
    3.3021    2.8189    1.0645 C   0  0  0  0  0  0  0  0  0  0  0  0
    4.6025    2.2795    0.9155 C   0  0  0  0  0  0  0  0  0  0  0  0
    4.7871    0.9668    0.4842 C   0  0  0  0  0  0  0  0  0  0  0  0
    3.6452    0.2320    0.2159 C   0  0  0  0  0  0  0  0  0  0  0  0
    3.5866   -1.0046   -0.1982 N   0  0  0  0  0  0  0  0  0  0  0  0
    2.2545   -1.2738   -0.3065 N   0  0  0  0  0  0  0  0  0  0  0  0
    1.7129   -2.6239   -0.5561 C   0  0  0  0  0  0  0  0  0  0  0  0
    2.5655   -3.8028   -0.0711 C   0  0  0  0  0  0  0  0  0  0  0  0
    2.8938   -4.1670   -1.5135 C   0  0  0  0  0  0  0  0  0  0  0  0
    1.8897   -3.1247   -1.9908 C   0  0  0  0  0  0  0  0  0  0  0  0
    3.1620    4.2658    1.5494 C   0  0  0  0  0  0  0  0  0  0  0  0
    3.7394    5.1143    0.6478 F   0  0  0  0  0  0  0  0  0  0  0  0
    1.8620    4.6502    1.7251 F   0  0  0  0  0  0  0  0  0  0  0  0
    3.8084    4.4195    2.7435 F   0  0  0  0  0  0  0  0  0  0  0  0
   -2.0172    2.0850    2.7730 H   0  0  0  0  0  0  0  0  0  0  0  0
   -3.3861    0.9534    2.6882 H   0  0  0  0  0  0  0  0  0  0  0  0
   -3.3605    2.4036    1.6575 H   0  0  0  0  0  0  0  0  0  0  0  0
   -5.2130   -0.6117   -1.7380 H   0  0  0  0  0  0  0  0  0  0  0  0
   -2.9582   -1.4913   -2.7812 H   0  0  0  0  0  0  0  0  0  0  0  0
   -0.2682   -1.1307   -1.8491 H   0  0  0  0  0  0  0  0  0  0  0  0
   -0.0698    1.1640    1.8003 H   0  0  0  0  0  0  0  0  0  0  0  0
    5.4661    2.8974    1.1398 H   0  0  0  0  0  0  0  0  0  0  0  0
    5.7753    0.5323    0.3611 H   0  0  0  0  0  0  0  0  0  0  0  0
    0.6830   -2.7081   -0.1965 H   0  0  0  0  0  0  0  0  0  0  0  0
    1.9804   -4.5715    0.4438 H   0  0  0  0  0  0  0  0  0  0  0  0
    3.4351   -3.5375    0.5394 H   0  0  0  0  0  0  0  0  0  0  0  0
    2.6458   -5.1972   -1.7892 H   0  0  0  0  0  0  0  0  0  0  0  0
    3.9270   -3.9369   -1.7952 H   0  0  0  0  0  0  0  0  0  0  0  0
    2.3069   -2.3865   -2.6845 H   0  0  0  0  0  0  0  0  0  0  0  0
    0.9787   -3.5615   -2.4125 H   0  0  0  0  0  0  0  0  0  0  0  0
  1  2  1  0
  1 28  1  0
  1 29  1  0
  1 30  1  0
  2  3  1  0
  2 10  2  0
  3  4  2  0
  3  7  1  0
  4  5  1  0
  5  6  1  0
  5 31  1  0
  6  7  2  0
  6 32  1  0
  7  8  1  0
  8  9  2  0
  8 33  1  0
  9 10  1  0
  9 11  1  0
 10 34  1  0
 11 12  2  0
 11 19  1  0
 12 13  1  0
 12 17  1  0
 13 14  2  0
 14 15  1  0
 14 24  1  0
 15 16  2  0
 15 35  1  0
 16 17  1  0
 16 36  1  0
 17 18  2  0
 18 19  1  0
 19 20  1  0
 20 21  1  0
 20 23  1  0
 20 37  1  0
 21 22  1  0
 21 38  1  0
 21 39  1  0
 22 23  1  0
 22 40  1  0
 22 41  1  0
 23 42  1  0
 23 43  1  0
 24 25  1  0
 24 26  1  0
 24 27  1  0
M  END
>  <group_name>  (1) 
JNS

>  <molecule_index>  (1) 
01589

>  <conformer_index>  (1) 
06

>  <method>  (1) 
openff-1.3.0

>  <basis>  (1) 
smirnoff

>  <program>  (1) 
openmm

>  <initial_energy>  (1) 
179.20190067101953 kilocalorie / mole

>  <final_energy>  (1) 
161.71297434548563 kilocalorie / mole

$$$$
