JNS-00690-07
     RDKit          3D

 38 42  0  0  0  0  0  0  0  0999 V2000
   -1.0987   -0.0342    0.4833 O   0  0  0  0  0  0  0  0  0  0  0  0
   -0.1443   -0.9087   -0.1427 C   0  0  0  0  0  0  0  0  0  0  0  0
   -0.5989   -2.3523   -0.3296 C   0  0  0  0  0  0  0  0  0  0  0  0
   -0.6052   -1.3982   -1.5141 C   0  0  0  0  0  0  0  0  0  0  0  0
    1.3459   -0.6426    0.0849 C   0  0  0  0  0  0  0  0  0  0  0  0
    2.2448   -0.8075   -0.8623 N   0  0  0  0  0  0  0  0  0  0  0  0
    3.4375   -0.3808   -0.3045 C   0  0  0  0  0  0  0  0  0  0  0  0
    3.2665    0.0404    0.9993 C   0  0  0  0  0  0  0  0  0  0  0  0
    4.2666    0.5066    1.7741 N   0  0  0  0  0  0  0  0  0  0  0  0
    5.5129    0.5651    1.2243 C   0  0  0  0  0  0  0  0  0  0  0  0
    5.7358    0.1472   -0.1105 C   0  0  0  0  0  0  0  0  0  0  0  0
    4.6869   -0.3351   -0.8946 C   0  0  0  0  0  0  0  0  0  0  0  0
    6.7028    1.0937    2.0357 C   0  0  0  0  0  0  0  0  0  0  0  0
    7.3015    2.1207    1.3629 F   0  0  0  0  0  0  0  0  0  0  0  0
    6.3420    1.5540    3.2710 F   0  0  0  0  0  0  0  0  0  0  0  0
    7.6255    0.1005    2.1999 F   0  0  0  0  0  0  0  0  0  0  0  0
    1.9265   -0.1625    1.2731 N   0  0  0  0  0  0  0  0  0  0  0  0
    1.3112    0.0003    2.5315 C   0  0  0  0  0  0  0  0  0  0  0  0
    1.6824    1.0667    3.3760 C   0  0  0  0  0  0  0  0  0  0  0  0
    1.0554    1.2219    4.6156 C   0  0  0  0  0  0  0  0  0  0  0  0
    0.0891    0.3489    5.0368 C   0  0  0  0  0  0  0  0  0  0  0  0
   -0.3042    0.7979    6.2868 N   0  0  0  0  0  0  0  0  0  0  0  0
    0.3804    1.9176    6.6608 N   0  0  0  0  0  0  0  0  0  0  0  0
    1.2065    2.1919    5.6776 C   0  0  0  0  0  0  0  0  0  0  0  0
   -0.2894   -0.7301    4.2396 C   0  0  0  0  0  0  0  0  0  0  0  0
    0.3282   -0.9051    2.9924 C   0  0  0  0  0  0  0  0  0  0  0  0
   -0.7108    0.4007    1.2657 H   0  0  0  0  0  0  0  0  0  0  0  0
   -1.5709   -2.6339    0.0868 H   0  0  0  0  0  0  0  0  0  0  0  0
    0.1687   -3.1324   -0.3136 H   0  0  0  0  0  0  0  0  0  0  0  0
    0.1480   -1.5471   -2.2941 H   0  0  0  0  0  0  0  0  0  0  0  0
   -1.5754   -1.0423   -1.8740 H   0  0  0  0  0  0  0  0  0  0  0  0
    6.7366    0.2035   -0.5282 H   0  0  0  0  0  0  0  0  0  0  0  0
    4.8236   -0.6628   -1.9214 H   0  0  0  0  0  0  0  0  0  0  0  0
    2.4445    1.7800    3.0738 H   0  0  0  0  0  0  0  0  0  0  0  0
   -1.0131    0.3401    6.8606 H   0  0  0  0  0  0  0  0  0  0  0  0
    1.9008    3.0269    5.6637 H   0  0  0  0  0  0  0  0  0  0  0  0
   -1.0442   -1.4313    4.5830 H   0  0  0  0  0  0  0  0  0  0  0  0
    0.0462   -1.7683    2.3979 H   0  0  0  0  0  0  0  0  0  0  0  0
  1  2  1  0
  1 27  1  0
  2  3  1  0
  2  4  1  0
  2  5  1  0
  3  4  1  0
  3 28  1  0
  3 29  1  0
  4 30  1  0
  4 31  1  0
  5  6  2  0
  5 17  1  0
  6  7  1  0
  7  8  2  0
  7 12  1  0
  8  9  1  0
  8 17  1  0
  9 10  2  0
 10 11  1  0
 10 13  1  0
 11 12  2  0
 11 32  1  0
 12 33  1  0
 13 14  1  0
 13 15  1  0
 13 16  1  0
 17 18  1  0
 18 19  2  0
 18 26  1  0
 19 20  1  0
 19 34  1  0
 20 21  2  0
 20 24  1  0
 21 22  1  0
 21 25  1  0
 22 23  1  0
 22 35  1  0
 23 24  2  0
 24 36  1  0
 25 26  2  0
 25 37  1  0
 26 38  1  0
M  END
>  <group_name>  (1) 
JNS

>  <molecule_index>  (1) 
00690

>  <conformer_index>  (1) 
07

>  <method>  (1) 
openff-1.3.0

>  <basis>  (1) 
smirnoff

>  <program>  (1) 
openmm

>  <initial_energy>  (1) 
195.13345398943346 kilocalorie / mole

>  <final_energy>  (1) 
181.82700591599612 kilocalorie / mole

$$$$
