JNS-01972-02
     RDKit          3D

 38 40  0  0  0  0  0  0  0  0999 V2000
   -0.3539   -1.7183    0.9130 F   0  0  0  0  0  0  0  0  0  0  0  0
    0.0680   -0.4422    1.1648 C   0  0  0  0  0  0  0  0  0  0  0  0
   -0.2080   -0.1872    2.4781 F   0  0  0  0  0  0  0  0  0  0  0  0
   -0.6943    0.3741    0.3777 F   0  0  0  0  0  0  0  0  0  0  0  0
    1.5708   -0.2604    0.8808 C   0  0  0  0  0  0  0  0  0  0  0  0
    2.3295   -1.3623    0.6203 N   0  0  0  0  0  0  0  0  0  0  0  0
    3.6347   -1.1960    0.3302 C   0  0  0  0  0  0  0  0  0  0  0  0
    4.2866    0.0561    0.2691 C   0  0  0  0  0  0  0  0  0  0  0  0
    3.5103    1.1821    0.5439 C   0  0  0  0  0  0  0  0  0  0  0  0
    2.1562    1.0376    0.8549 C   0  0  0  0  0  0  0  0  0  0  0  0
    1.4006    2.2573    1.1448 C   0  0  0  0  0  0  0  0  0  0  0  0
    1.0052    2.5642    2.4551 C   0  0  0  0  0  0  0  0  0  0  0  0
    0.2956    3.7400    2.7251 C   0  0  0  0  0  0  0  0  0  0  0  0
   -0.0173    4.6230    1.6867 C   0  0  0  0  0  0  0  0  0  0  0  0
    0.3831    4.3300    0.3790 C   0  0  0  0  0  0  0  0  0  0  0  0
    1.0923    3.1533    0.1111 C   0  0  0  0  0  0  0  0  0  0  0  0
    5.6627    0.1742   -0.0428 N   0  0  0  0  0  0  0  0  0  0  0  0
    6.2303    1.3680   -0.7174 C   0  0  0  0  0  0  0  0  0  0  0  0
    7.5106    1.8393   -0.0053 C   0  0  0  0  0  0  0  0  0  0  0  0
    8.4729    0.7277    0.1322 N   0  0  0  0  0  0  0  0  0  0  0  0
    7.8947   -0.3965    0.8952 C   0  0  0  0  0  0  0  0  0  0  0  0
    6.6135   -0.9316    0.2264 C   0  0  0  0  0  0  0  0  0  0  0  0
    4.1981   -2.0970    0.1113 H   0  0  0  0  0  0  0  0  0  0  0  0
    3.9376    2.1779    0.5599 H   0  0  0  0  0  0  0  0  0  0  0  0
    1.2509    1.8875    3.2688 H   0  0  0  0  0  0  0  0  0  0  0  0
   -0.0126    3.9648    3.7422 H   0  0  0  0  0  0  0  0  0  0  0  0
   -0.5710    5.5340    1.8956 H   0  0  0  0  0  0  0  0  0  0  0  0
    0.1404    5.0135   -0.4296 H   0  0  0  0  0  0  0  0  0  0  0  0
    1.3974    2.9270   -0.9065 H   0  0  0  0  0  0  0  0  0  0  0  0
    5.5223    2.1975   -0.7672 H   0  0  0  0  0  0  0  0  0  0  0  0
    6.4741    1.1035   -1.7510 H   0  0  0  0  0  0  0  0  0  0  0  0
    7.2458    2.2189    0.9874 H   0  0  0  0  0  0  0  0  0  0  0  0
    7.9628    2.6629   -0.5670 H   0  0  0  0  0  0  0  0  0  0  0  0
    8.7765    0.4091   -0.7883 H   0  0  0  0  0  0  0  0  0  0  0  0
    8.6261   -1.2056    0.9890 H   0  0  0  0  0  0  0  0  0  0  0  0
    7.6470   -0.0557    1.9063 H   0  0  0  0  0  0  0  0  0  0  0  0
    6.8702   -1.4256   -0.7159 H   0  0  0  0  0  0  0  0  0  0  0  0
    6.1746   -1.6806    0.8919 H   0  0  0  0  0  0  0  0  0  0  0  0
  1  2  1  0
  2  3  1  0
  2  4  1  0
  2  5  1  0
  5  6  2  0
  5 10  1  0
  6  7  1  0
  7  8  2  0
  7 23  1  0
  8  9  1  0
  8 17  1  0
  9 10  2  0
  9 24  1  0
 10 11  1  0
 11 12  2  0
 11 16  1  0
 12 13  1  0
 12 25  1  0
 13 14  2  0
 13 26  1  0
 14 15  1  0
 14 27  1  0
 15 16  2  0
 15 28  1  0
 16 29  1  0
 17 18  1  0
 17 22  1  0
 18 19  1  0
 18 30  1  0
 18 31  1  0
 19 20  1  0
 19 32  1  0
 19 33  1  0
 20 21  1  0
 20 34  1  0
 21 22  1  0
 21 35  1  0
 21 36  1  0
 22 37  1  0
 22 38  1  0
M  END
>  <group_name>  (1) 
JNS

>  <molecule_index>  (1) 
01972

>  <conformer_index>  (1) 
02

>  <method>  (1) 
openff-1.3.0

>  <basis>  (1) 
smirnoff

>  <program>  (1) 
openmm

>  <initial_energy>  (1) 
188.55679692211683 kilocalorie / mole

>  <final_energy>  (1) 
182.10630230963156 kilocalorie / mole

$$$$
