JNS-02240-00
     RDKit          3D

 51 55  0  0  0  0  0  0  0  0999 V2000
   -0.7521    7.6225    3.2082 C   0  0  0  0  0  0  0  0  0  0  0  0
   -0.7472    6.1477    2.9582 C   0  0  0  0  0  0  0  0  0  0  0  0
   -1.5190    5.3843    3.7362 N   0  0  0  0  0  0  0  0  0  0  0  0
   -1.5397    4.0567    3.5353 C   0  0  0  0  0  0  0  0  0  0  0  0
   -2.3645    3.2412    4.4758 C   0  0  0  0  0  0  0  0  0  0  0  0
   -2.0122    1.9679    4.8183 N   0  0  0  0  0  0  0  0  0  0  0  0
   -2.8238    1.3569    5.7062 C   0  0  0  0  0  0  0  0  0  0  0  0
   -3.9669    1.9767    6.2486 C   0  0  0  0  0  0  0  0  0  0  0  0
   -4.3382    3.2308    5.9259 N   0  0  0  0  0  0  0  0  0  0  0  0
   -3.5173    3.8485    5.0458 C   0  0  0  0  0  0  0  0  0  0  0  0
   -0.7936    3.5078    2.4743 C   0  0  0  0  0  0  0  0  0  0  0  0
   -0.8255    2.0199    2.1230 C   0  0  0  0  0  0  0  0  0  0  0  0
   -0.3549    1.7487    0.6868 C   0  0  1  0  0  0  0  0  0  0  0  0
   -1.3832    2.3249   -0.3291 C   0  0  0  0  0  0  0  0  0  0  0  0
   -0.7411    3.2047   -1.4171 C   0  0  0  0  0  0  0  0  0  0  0  0
    0.2393    4.2573   -0.8442 C   0  0  0  0  0  0  0  0  0  0  0  0
    0.8306    3.8791    0.5334 C   0  0  2  0  0  0  0  0  0  0  0  0
    0.9387    2.4184    0.5471 N   0  0  0  0  0  0  0  0  0  0  0  0
    2.0720    1.7818    0.0526 C   0  0  0  0  0  0  0  0  0  0  0  0
    3.0177    2.4556   -0.3473 O   0  0  0  0  0  0  0  0  0  0  0  0
    2.1311    0.3296   -0.1687 C   0  0  0  0  0  0  0  0  0  0  0  0
    2.2066   -0.1677   -1.4696 C   0  0  0  0  0  0  0  0  0  0  0  0
    2.2511   -1.5388   -1.6941 C   0  0  0  0  0  0  0  0  0  0  0  0
    2.2229   -2.4372   -0.6975 N   0  0  0  0  0  0  0  0  0  0  0  0
    2.1840   -1.9929    0.5917 C   0  0  0  0  0  0  0  0  0  0  0  0
    2.1479   -0.6000    0.8847 C   0  0  0  0  0  0  0  0  0  0  0  0
    2.1747   -0.0148    2.5388 Cl  0  0  0  0  0  0  0  0  0  0  0  0
    2.1714   -3.0220    1.7342 C   0  0  0  0  0  0  0  0  0  0  0  0
    3.2771   -2.8822    2.5232 F   0  0  0  0  0  0  0  0  0  0  0  0
    1.0498   -2.8682    2.4993 F   0  0  0  0  0  0  0  0  0  0  0  0
    2.1644   -4.3098    1.2762 F   0  0  0  0  0  0  0  0  0  0  0  0
   -0.0307    4.3860    1.6895 C   0  0  0  0  0  0  0  0  0  0  0  0
   -0.0124    5.6957    1.9434 N   0  0  0  0  0  0  0  0  0  0  0  0
    0.0424    7.8739    3.9148 H   0  0  0  0  0  0  0  0  0  0  0  0
   -0.5835    8.1641    2.2736 H   0  0  0  0  0  0  0  0  0  0  0  0
   -1.7138    7.9320    3.6259 H   0  0  0  0  0  0  0  0  0  0  0  0
   -2.5882    0.3433    6.0153 H   0  0  0  0  0  0  0  0  0  0  0  0
   -4.5733    1.4191    6.9556 H   0  0  0  0  0  0  0  0  0  0  0  0
   -3.7798    4.8635    4.7632 H   0  0  0  0  0  0  0  0  0  0  0  0
   -1.8381    1.6196    2.2347 H   0  0  0  0  0  0  0  0  0  0  0  0
   -0.1828    1.4831    2.8261 H   0  0  0  0  0  0  0  0  0  0  0  0
   -0.2781    0.6680    0.5315 H   0  0  0  0  0  0  0  0  0  0  0  0
   -2.1311    2.9342    0.1889 H   0  0  0  0  0  0  0  0  0  0  0  0
   -1.9287    1.5002   -0.7979 H   0  0  0  0  0  0  0  0  0  0  0  0
   -1.5173    3.7012   -2.0080 H   0  0  0  0  0  0  0  0  0  0  0  0
   -0.1858    2.5511   -2.0980 H   0  0  0  0  0  0  0  0  0  0  0  0
   -0.2475    5.2357   -0.7788 H   0  0  0  0  0  0  0  0  0  0  0  0
    1.0634    4.3647   -1.5569 H   0  0  0  0  0  0  0  0  0  0  0  0
    1.8153    4.3457    0.6453 H   0  0  0  0  0  0  0  0  0  0  0  0
    2.2354    0.5134   -2.3153 H   0  0  0  0  0  0  0  0  0  0  0  0
    2.3050   -1.8998   -2.7172 H   0  0  0  0  0  0  0  0  0  0  0  0
  1  2  1  0
  1 34  1  0
  1 35  1  0
  1 36  1  0
  2  3  2  0
  2 33  1  0
  3  4  1  0
  4  5  1  0
  4 11  2  0
  5  6  2  0
  5 10  1  0
  6  7  1  0
  7  8  2  0
  7 37  1  0
  8  9  1  0
  8 38  1  0
  9 10  2  0
 10 39  1  0
 11 12  1  0
 11 32  1  0
 12 13  1  0
 12 40  1  0
 12 41  1  0
 13 14  1  0
 13 18  1  0
 13 42  1  1
 14 15  1  0
 14 43  1  0
 14 44  1  0
 15 16  1  0
 15 45  1  0
 15 46  1  0
 16 17  1  0
 16 47  1  0
 16 48  1  0
 17 18  1  0
 17 32  1  0
 17 49  1  1
 18 19  1  0
 19 20  2  0
 19 21  1  0
 21 22  2  0
 21 26  1  0
 22 23  1  0
 22 50  1  0
 23 24  2  0
 23 51  1  0
 24 25  1  0
 25 26  2  0
 25 28  1  0
 26 27  1  0
 28 29  1  0
 28 30  1  0
 28 31  1  0
 32 33  2  0
M  END
>  <group_name>  (1) 
JNS

>  <molecule_index>  (1) 
02240

>  <conformer_index>  (1) 
00

>  <method>  (1) 
openff-1.3.0

>  <basis>  (1) 
smirnoff

>  <program>  (1) 
openmm

>  <initial_energy>  (1) 
141.82846241551064 kilocalorie / mole

>  <final_energy>  (1) 
131.6671394727585 kilocalorie / mole

$$$$
