JNS-01792-02
     RDKit          3D

 40 44  0  0  0  0  0  0  0  0999 V2000
   -0.6359   -1.2350   -0.2139 F   0  0  0  0  0  0  0  0  0  0  0  0
    0.0692   -0.3257   -0.9519 C   0  0  0  0  0  0  0  0  0  0  0  0
    0.0163   -0.7166   -2.2601 F   0  0  0  0  0  0  0  0  0  0  0  0
   -0.5537    0.8853   -0.8481 F   0  0  0  0  0  0  0  0  0  0  0  0
    1.5321   -0.1970   -0.5064 C   0  0  0  0  0  0  0  0  0  0  0  0
    1.9942   -0.8904    0.5714 N   0  0  0  0  0  0  0  0  0  0  0  0
    3.2920   -0.7436    0.9069 C   0  0  0  0  0  0  0  0  0  0  0  0
    4.1623    0.0835    0.2105 C   0  0  0  0  0  0  0  0  0  0  0  0
    5.4562    0.0085    0.8432 C   0  0  0  0  0  0  0  0  0  0  0  0
    5.3366   -0.8538    1.9113 C   0  0  0  0  0  0  0  0  0  0  0  0
    6.5128   -1.2594    2.7649 C   0  0  0  0  0  0  0  0  0  0  0  0
    6.8861   -2.7372    2.8161 C   0  0  0  0  0  0  0  0  0  0  0  0
    7.7772   -1.7546    2.0698 C   0  0  0  0  0  0  0  0  0  0  0  0
    4.0063   -1.3177    1.9701 N   0  0  0  0  0  0  0  0  0  0  0  0
    3.4759   -2.2060    2.9306 C   0  0  0  0  0  0  0  0  0  0  0  0
    3.9026   -2.1620    4.2742 C   0  0  0  0  0  0  0  0  0  0  0  0
    3.3736   -3.0571    5.2079 C   0  0  0  0  0  0  0  0  0  0  0  0
    2.4200   -3.9865    4.8340 C   0  0  0  0  0  0  0  0  0  0  0  0
    2.0488   -4.7415    5.9278 N   0  0  0  0  0  0  0  0  0  0  0  0
    2.6718   -4.2384    7.0331 C   0  0  0  0  0  0  0  0  0  0  0  0
    2.3207   -4.5468    8.1638 O   0  0  0  0  0  0  0  0  0  0  0  0
    3.6706   -3.1418    6.6824 C   0  0  0  0  0  0  0  0  0  0  0  0
    1.9618   -4.0451    3.5230 C   0  0  0  0  0  0  0  0  0  0  0  0
    2.4915   -3.1566    2.5753 C   0  0  0  0  0  0  0  0  0  0  0  0
    3.7290    0.8021   -0.8904 C   0  0  0  0  0  0  0  0  0  0  0  0
    2.3907    0.6507   -1.2454 C   0  0  0  0  0  0  0  0  0  0  0  0
    6.3619    0.5163    0.5247 H   0  0  0  0  0  0  0  0  0  0  0  0
    6.6388   -0.6764    3.6826 H   0  0  0  0  0  0  0  0  0  0  0  0
    7.2524   -3.1341    3.7679 H   0  0  0  0  0  0  0  0  0  0  0  0
    6.2861   -3.4333    2.2204 H   0  0  0  0  0  0  0  0  0  0  0  0
    7.7752   -1.8043    0.9762 H   0  0  0  0  0  0  0  0  0  0  0  0
    8.7389   -1.4975    2.5248 H   0  0  0  0  0  0  0  0  0  0  0  0
    4.6194   -1.4199    4.6062 H   0  0  0  0  0  0  0  0  0  0  0  0
    1.1197   -5.1326    6.0370 H   0  0  0  0  0  0  0  0  0  0  0  0
    4.6944   -3.4688    6.8762 H   0  0  0  0  0  0  0  0  0  0  0  0
    3.4350   -2.2131    7.2072 H   0  0  0  0  0  0  0  0  0  0  0  0
    1.2079   -4.7706    3.2340 H   0  0  0  0  0  0  0  0  0  0  0  0
    2.1352   -3.2234    1.5516 H   0  0  0  0  0  0  0  0  0  0  0  0
    4.4018    1.4510   -1.4448 H   0  0  0  0  0  0  0  0  0  0  0  0
    1.9974    1.1918   -2.1009 H   0  0  0  0  0  0  0  0  0  0  0  0
  1  2  1  0
  2  3  1  0
  2  4  1  0
  2  5  1  0
  5  6  2  0
  5 26  1  0
  6  7  1  0
  7  8  2  0
  7 14  1  0
  8  9  1  0
  8 25  1  0
  9 10  2  0
  9 27  1  0
 10 11  1  0
 10 14  1  0
 11 12  1  0
 11 13  1  0
 11 28  1  0
 12 13  1  0
 12 29  1  0
 12 30  1  0
 13 31  1  0
 13 32  1  0
 14 15  1  0
 15 16  2  0
 15 24  1  0
 16 17  1  0
 16 33  1  0
 17 18  2  0
 17 22  1  0
 18 19  1  0
 18 23  1  0
 19 20  1  0
 19 34  1  0
 20 21  2  0
 20 22  1  0
 22 35  1  0
 22 36  1  0
 23 24  2  0
 23 37  1  0
 24 38  1  0
 25 26  2  0
 25 39  1  0
 26 40  1  0
M  END
>  <group_name>  (1) 
JNS

>  <molecule_index>  (1) 
01792

>  <conformer_index>  (1) 
02

>  <method>  (1) 
openff-1.3.0

>  <basis>  (1) 
smirnoff

>  <program>  (1) 
openmm

>  <initial_energy>  (1) 
129.7174602780986 kilocalorie / mole

>  <final_energy>  (1) 
117.58295359539447 kilocalorie / mole

$$$$
