JNS-01082-00
     RDKit          3D

 43 46  0  0  0  0  0  0  0  0999 V2000
    1.2119    4.7243    0.5246 C   0  0  0  0  0  0  0  0  0  0  0  0
    1.7699    3.8562   -0.6098 C   0  0  2  0  0  0  0  0  0  0  0  0
    1.0745    4.1379   -1.9525 C   0  0  0  0  0  0  0  0  0  0  0  0
   -0.3331    3.5814   -1.9619 C   0  0  0  0  0  0  0  0  0  0  0  0
   -0.6719    2.5417   -1.1544 C   0  0  0  0  0  0  0  0  0  0  0  0
    0.2828    1.8449   -0.2165 C   0  0  0  0  0  0  0  0  0  0  0  0
    1.6381    2.4289   -0.2669 N   0  0  0  0  0  0  0  0  0  0  0  0
    2.7648    1.6119   -0.2106 C   0  0  0  0  0  0  0  0  0  0  0  0
    3.8548    2.0518   -0.5683 O   0  0  0  0  0  0  0  0  0  0  0  0
    2.7204    0.2013    0.2030 C   0  0  0  0  0  0  0  0  0  0  0  0
    2.1389   -0.2130    1.4110 C   0  0  0  0  0  0  0  0  0  0  0  0
    1.6124    0.7109    2.2592 F   0  0  0  0  0  0  0  0  0  0  0  0
    2.1355   -1.5886    1.7548 C   0  0  0  0  0  0  0  0  0  0  0  0
    2.7038   -2.5264    0.9414 N   0  0  0  0  0  0  0  0  0  0  0  0
    3.2906   -2.1186   -0.1969 C   0  0  0  0  0  0  0  0  0  0  0  0
    3.3209   -0.7821   -0.5893 C   0  0  0  0  0  0  0  0  0  0  0  0
    1.4788   -2.0143    3.0715 C   0  0  0  0  0  0  0  0  0  0  0  0
    1.5191   -3.3664    3.2633 F   0  0  0  0  0  0  0  0  0  0  0  0
    2.1166   -1.4293    4.1276 F   0  0  0  0  0  0  0  0  0  0  0  0
    0.1663   -1.6373    3.0839 F   0  0  0  0  0  0  0  0  0  0  0  0
   -2.0149    2.2534   -1.2766 N   0  0  0  0  0  0  0  0  0  0  0  0
   -2.5164    3.0987   -2.1404 N   0  0  0  0  0  0  0  0  0  0  0  0
   -1.5266    3.9258   -2.5885 N   0  0  0  0  0  0  0  0  0  0  0  0
   -1.7219    4.9263   -3.5706 C   0  0  0  0  0  0  0  0  0  0  0  0
   -0.6564    5.6303   -4.0116 N   0  0  0  0  0  0  0  0  0  0  0  0
   -0.8575    6.5656   -4.9459 C   0  0  0  0  0  0  0  0  0  0  0  0
   -2.1156    6.8304   -5.4677 C   0  0  0  0  0  0  0  0  0  0  0  0
   -2.2988    7.8039   -6.4337 O   0  0  0  0  0  0  0  0  0  0  0  0
   -3.1616    6.0676   -4.9656 C   0  0  0  0  0  0  0  0  0  0  0  0
   -2.9741    5.1320   -4.0348 N   0  0  0  0  0  0  0  0  0  0  0  0
    1.3454    5.7841    0.2884 H   0  0  0  0  0  0  0  0  0  0  0  0
    1.7462    4.5095    1.4552 H   0  0  0  0  0  0  0  0  0  0  0  0
    0.1457    4.5388    0.6852 H   0  0  0  0  0  0  0  0  0  0  0  0
    2.8220    4.1368   -0.7254 H   0  0  0  0  0  0  0  0  0  0  0  0
    1.0696    5.2157   -2.1358 H   0  0  0  0  0  0  0  0  0  0  0  0
    1.6440    3.6661   -2.7591 H   0  0  0  0  0  0  0  0  0  0  0  0
    0.3003    0.7886   -0.5001 H   0  0  0  0  0  0  0  0  0  0  0  0
   -0.1161    1.9149    0.7999 H   0  0  0  0  0  0  0  0  0  0  0  0
    3.7588   -2.8623   -0.8354 H   0  0  0  0  0  0  0  0  0  0  0  0
    3.8180   -0.5113   -1.5169 H   0  0  0  0  0  0  0  0  0  0  0  0
   -0.0072    7.1367   -5.3077 H   0  0  0  0  0  0  0  0  0  0  0  0
   -3.2289    7.8781   -6.7143 H   0  0  0  0  0  0  0  0  0  0  0  0
   -4.1681    6.2329   -5.3388 H   0  0  0  0  0  0  0  0  0  0  0  0
  1  2  1  0
  1 31  1  0
  1 32  1  0
  1 33  1  0
  2  3  1  0
  2  7  1  0
  2 34  1  6
  3  4  1  0
  3 35  1  0
  3 36  1  0
  4  5  2  0
  4 23  1  0
  5  6  1  0
  5 21  1  0
  6  7  1  0
  6 37  1  0
  6 38  1  0
  7  8  1  0
  8  9  2  0
  8 10  1  0
 10 11  2  0
 10 16  1  0
 11 12  1  0
 11 13  1  0
 13 14  2  0
 13 17  1  0
 14 15  1  0
 15 16  2  0
 15 39  1  0
 16 40  1  0
 17 18  1  0
 17 19  1  0
 17 20  1  0
 21 22  2  0
 22 23  1  0
 23 24  1  0
 24 25  2  0
 24 30  1  0
 25 26  1  0
 26 27  2  0
 26 41  1  0
 27 28  1  0
 27 29  1  0
 28 42  1  0
 29 30  2  0
 29 43  1  0
M  END
>  <group_name>  (1) 
JNS

>  <molecule_index>  (1) 
01082

>  <conformer_index>  (1) 
00

>  <method>  (1) 
openff-1.3.0

>  <basis>  (1) 
smirnoff

>  <program>  (1) 
openmm

>  <initial_energy>  (1) 
112.82601295933824 kilocalorie / mole

>  <final_energy>  (1) 
101.81117465395546 kilocalorie / mole

$$$$
