JNS-01581-02
     RDKit          3D

 40 44  0  0  0  0  0  0  0  0999 V2000
   -0.8658    0.3915   -0.1905 F   0  0  0  0  0  0  0  0  0  0  0  0
   -0.0632   -0.7071   -0.3066 C   0  0  0  0  0  0  0  0  0  0  0  0
   -0.4964   -1.6523    0.5807 F   0  0  0  0  0  0  0  0  0  0  0  0
   -0.2168   -1.2123   -1.5664 F   0  0  0  0  0  0  0  0  0  0  0  0
    1.4005   -0.3050   -0.0836 C   0  0  0  0  0  0  0  0  0  0  0  0
    2.1099   -0.8129    0.9641 N   0  0  0  0  0  0  0  0  0  0  0  0
    3.3944   -0.4236    1.0925 C   0  0  0  0  0  0  0  0  0  0  0  0
    4.0200    0.4550    0.2303 C   0  0  0  0  0  0  0  0  0  0  0  0
    3.3317    0.9896   -0.8428 C   0  0  0  0  0  0  0  0  0  0  0  0
    2.0009    0.5977   -0.9949 C   0  0  0  0  0  0  0  0  0  0  0  0
    5.3365    0.6758    0.5956 N   0  0  0  0  0  0  0  0  0  0  0  0
    5.5205   -0.0612    1.6679 C   0  0  0  0  0  0  0  0  0  0  0  0
    6.8930   -0.1647    2.3089 C   0  0  0  0  0  0  0  0  0  0  0  0
    7.3820   -1.5681    2.6901 C   0  0  0  0  0  0  0  0  0  0  0  0
    8.7162   -1.2911    2.0119 C   0  0  0  0  0  0  0  0  0  0  0  0
    8.1029   -0.0543    1.3708 C   0  0  0  0  0  0  0  0  0  0  0  0
    4.3446   -0.7340    2.0475 N   0  0  0  0  0  0  0  0  0  0  0  0
    4.1176   -1.4941    3.2132 C   0  0  0  0  0  0  0  0  0  0  0  0
    3.2624   -2.6152    3.1832 C   0  0  0  0  0  0  0  0  0  0  0  0
    3.0527   -3.3603    4.3468 C   0  0  0  0  0  0  0  0  0  0  0  0
    3.6606   -3.0157    5.5241 C   0  0  0  0  0  0  0  0  0  0  0  0
    3.2408   -3.9507    6.4545 N   0  0  0  0  0  0  0  0  0  0  0  0
    2.3933   -4.8678    5.9028 N   0  0  0  0  0  0  0  0  0  0  0  0
    2.2603   -4.5342    4.6392 C   0  0  0  0  0  0  0  0  0  0  0  0
    4.5005   -1.9049    5.6035 C   0  0  0  0  0  0  0  0  0  0  0  0
    5.2580   -1.4629    7.1096 Cl  0  0  0  0  0  0  0  0  0  0  0  0
    4.7163   -1.1456    4.4446 C   0  0  0  0  0  0  0  0  0  0  0  0
    3.8224    1.6798   -1.5233 H   0  0  0  0  0  0  0  0  0  0  0  0
    1.4168    0.9894   -1.8224 H   0  0  0  0  0  0  0  0  0  0  0  0
    6.9816    0.5452    3.1364 H   0  0  0  0  0  0  0  0  0  0  0  0
    7.4500   -1.7547    3.7667 H   0  0  0  0  0  0  0  0  0  0  0  0
    6.8217   -2.3760    2.2065 H   0  0  0  0  0  0  0  0  0  0  0  0
    9.0371   -2.0613    1.3030 H   0  0  0  0  0  0  0  0  0  0  0  0
    9.5232   -1.0614    2.7155 H   0  0  0  0  0  0  0  0  0  0  0  0
    8.6868    0.8641    1.4890 H   0  0  0  0  0  0  0  0  0  0  0  0
    7.8630   -0.2061    0.3125 H   0  0  0  0  0  0  0  0  0  0  0  0
    2.7700   -2.9175    2.2633 H   0  0  0  0  0  0  0  0  0  0  0  0
    3.5271   -3.9388    7.4345 H   0  0  0  0  0  0  0  0  0  0  0  0
    1.6450   -5.0644    3.9182 H   0  0  0  0  0  0  0  0  0  0  0  0
    5.3411   -0.2644    4.5294 H   0  0  0  0  0  0  0  0  0  0  0  0
  1  2  1  0
  2  3  1  0
  2  4  1  0
  2  5  1  0
  5  6  2  0
  5 10  1  0
  6  7  1  0
  7  8  2  0
  7 17  1  0
  8  9  1  0
  8 11  1  0
  9 10  2  0
  9 28  1  0
 10 29  1  0
 11 12  2  0
 12 13  1  0
 12 17  1  0
 13 14  1  0
 13 16  1  0
 13 30  1  0
 14 15  1  0
 14 31  1  0
 14 32  1  0
 15 16  1  0
 15 33  1  0
 15 34  1  0
 16 35  1  0
 16 36  1  0
 17 18  1  0
 18 19  2  0
 18 27  1  0
 19 20  1  0
 19 37  1  0
 20 21  2  0
 20 24  1  0
 21 22  1  0
 21 25  1  0
 22 23  1  0
 22 38  1  0
 23 24  2  0
 24 39  1  0
 25 26  1  0
 25 27  2  0
 27 40  1  0
M  END
>  <group_name>  (1) 
JNS

>  <molecule_index>  (1) 
01581

>  <conformer_index>  (1) 
02

>  <method>  (1) 
openff-1.3.0

>  <basis>  (1) 
smirnoff

>  <program>  (1) 
openmm

>  <initial_energy>  (1) 
192.04396059022335 kilocalorie / mole

>  <final_energy>  (1) 
178.85478603008931 kilocalorie / mole

$$$$
