JNS-01589-01
     RDKit          3D

 43 47  0  0  0  0  0  0  0  0999 V2000
   -2.5298    0.7697    2.4290 C   0  0  0  0  0  0  0  0  0  0  0  0
   -1.8741    0.3771    1.1291 C   0  0  0  0  0  0  0  0  0  0  0  0
   -2.6437    0.0080    0.0176 C   0  0  0  0  0  0  0  0  0  0  0  0
   -3.9497   -0.0585   -0.0643 N   0  0  0  0  0  0  0  0  0  0  0  0
   -4.2034   -0.4436   -1.3414 N   0  0  0  0  0  0  0  0  0  0  0  0
   -3.0299   -0.6203   -2.0600 C   0  0  0  0  0  0  0  0  0  0  0  0
   -2.0338   -0.3310   -1.1802 C   0  0  0  0  0  0  0  0  0  0  0  0
   -0.6452   -0.3223   -1.3117 C   0  0  0  0  0  0  0  0  0  0  0  0
    0.1553    0.0242   -0.2085 C   0  0  0  0  0  0  0  0  0  0  0  0
   -0.4742    0.3844    0.9995 C   0  0  0  0  0  0  0  0  0  0  0  0
    1.6242    0.0209   -0.3095 C   0  0  0  0  0  0  0  0  0  0  0  0
    2.4885    0.9347    0.2306 C   0  0  0  0  0  0  0  0  0  0  0  0
    2.2359    2.0296    0.9739 N   0  0  0  0  0  0  0  0  0  0  0  0
    3.3010    2.7820    1.3688 C   0  0  0  0  0  0  0  0  0  0  0  0
    4.6209    2.4207    1.0062 C   0  0  0  0  0  0  0  0  0  0  0  0
    4.8654    1.2855    0.2348 C   0  0  0  0  0  0  0  0  0  0  0  0
    3.7623    0.5424   -0.1487 C   0  0  0  0  0  0  0  0  0  0  0  0
    3.7605   -0.5464   -0.8689 N   0  0  0  0  0  0  0  0  0  0  0  0
    2.4486   -0.9018   -0.9620 N   0  0  0  0  0  0  0  0  0  0  0  0
    2.0012   -2.1850   -1.5365 C   0  0  0  0  0  0  0  0  0  0  0  0
    3.0209   -3.3304   -1.5852 C   0  0  0  0  0  0  0  0  0  0  0  0
    1.9793   -4.2786   -1.0055 C   0  0  0  0  0  0  0  0  0  0  0  0
    1.1247   -3.0710   -0.6448 C   0  0  0  0  0  0  0  0  0  0  0  0
    3.0952    4.0359    2.2253 C   0  0  0  0  0  0  0  0  0  0  0  0
    3.8356    3.9429    3.3701 F   0  0  0  0  0  0  0  0  0  0  0  0
    1.7913    4.2319    2.5861 F   0  0  0  0  0  0  0  0  0  0  0  0
    3.5190    5.1392    1.5403 F   0  0  0  0  0  0  0  0  0  0  0  0
   -1.7841    1.0817    3.1660 H   0  0  0  0  0  0  0  0  0  0  0  0
   -3.0903   -0.0778    2.8340 H   0  0  0  0  0  0  0  0  0  0  0  0
   -3.2200    1.6018    2.2611 H   0  0  0  0  0  0  0  0  0  0  0  0
   -5.1416   -0.5690   -1.7180 H   0  0  0  0  0  0  0  0  0  0  0  0
   -2.9237   -0.9176   -3.0984 H   0  0  0  0  0  0  0  0  0  0  0  0
   -0.1995   -0.5670   -2.2690 H   0  0  0  0  0  0  0  0  0  0  0  0
    0.1360    0.6714    1.8506 H   0  0  0  0  0  0  0  0  0  0  0  0
    5.4525    3.0367    1.3330 H   0  0  0  0  0  0  0  0  0  0  0  0
    5.8694    0.9899   -0.0568 H   0  0  0  0  0  0  0  0  0  0  0  0
    1.5513   -2.0253   -2.5205 H   0  0  0  0  0  0  0  0  0  0  0  0
    3.3693   -3.5850   -2.5910 H   0  0  0  0  0  0  0  0  0  0  0  0
    3.8794   -3.1975   -0.9177 H   0  0  0  0  0  0  0  0  0  0  0  0
    1.5182   -4.9308   -1.7549 H   0  0  0  0  0  0  0  0  0  0  0  0
    2.3229   -4.8676   -0.1487 H   0  0  0  0  0  0  0  0  0  0  0  0
    0.0769   -3.1389   -0.9545 H   0  0  0  0  0  0  0  0  0  0  0  0
    1.1813   -2.8146    0.4191 H   0  0  0  0  0  0  0  0  0  0  0  0
  1  2  1  0
  1 28  1  0
  1 29  1  0
  1 30  1  0
  2  3  1  0
  2 10  2  0
  3  4  2  0
  3  7  1  0
  4  5  1  0
  5  6  1  0
  5 31  1  0
  6  7  2  0
  6 32  1  0
  7  8  1  0
  8  9  2  0
  8 33  1  0
  9 10  1  0
  9 11  1  0
 10 34  1  0
 11 12  2  0
 11 19  1  0
 12 13  1  0
 12 17  1  0
 13 14  2  0
 14 15  1  0
 14 24  1  0
 15 16  2  0
 15 35  1  0
 16 17  1  0
 16 36  1  0
 17 18  2  0
 18 19  1  0
 19 20  1  0
 20 21  1  0
 20 23  1  0
 20 37  1  0
 21 22  1  0
 21 38  1  0
 21 39  1  0
 22 23  1  0
 22 40  1  0
 22 41  1  0
 23 42  1  0
 23 43  1  0
 24 25  1  0
 24 26  1  0
 24 27  1  0
M  END
>  <group_name>  (1) 
JNS

>  <molecule_index>  (1) 
01589

>  <conformer_index>  (1) 
01

>  <method>  (1) 
openff-1.3.0

>  <basis>  (1) 
smirnoff

>  <program>  (1) 
openmm

>  <initial_energy>  (1) 
178.0820909426454 kilocalorie / mole

>  <final_energy>  (1) 
161.12855225714554 kilocalorie / mole

$$$$
