JNS-01356-07
     RDKit          3D

 33 36  0  0  0  0  0  0  0  0999 V2000
    0.4072   -3.0977   -0.5116 F   0  0  0  0  0  0  0  0  0  0  0  0
   -0.7587   -2.6279   -1.0434 C   0  0  0  0  0  0  0  0  0  0  0  0
   -1.7581   -3.4389   -0.5867 F   0  0  0  0  0  0  0  0  0  0  0  0
   -0.6986   -2.7553   -2.4013 F   0  0  0  0  0  0  0  0  0  0  0  0
   -1.0138   -1.1622   -0.6695 C   0  0  0  0  0  0  0  0  0  0  0  0
   -2.2383   -0.6782   -0.5452 N   0  0  0  0  0  0  0  0  0  0  0  0
   -2.0848    0.6185   -0.0883 C   0  0  0  0  0  0  0  0  0  0  0  0
   -0.7546    0.9425    0.0696 C   0  0  0  0  0  0  0  0  0  0  0  0
   -0.3206    2.1429    0.5004 N   0  0  0  0  0  0  0  0  0  0  0  0
   -1.2623    3.0816    0.8017 C   0  0  0  0  0  0  0  0  0  0  0  0
   -2.6415    2.7932    0.6599 C   0  0  0  0  0  0  0  0  0  0  0  0
   -3.0689    1.5440    0.2078 C   0  0  0  0  0  0  0  0  0  0  0  0
   -0.8514    4.4709    1.3057 C   0  0  0  0  0  0  0  0  0  0  0  0
   -1.4313    4.7095    2.5189 F   0  0  0  0  0  0  0  0  0  0  0  0
    0.5007    4.6068    1.4475 F   0  0  0  0  0  0  0  0  0  0  0  0
   -1.2897    5.4240    0.4316 F   0  0  0  0  0  0  0  0  0  0  0  0
   -0.0541   -0.1787   -0.3357 N   0  0  0  0  0  0  0  0  0  0  0  0
    1.3461   -0.2367   -0.4882 C   0  0  0  0  0  0  0  0  0  0  0  0
    2.1901    0.3510    0.4746 C   0  0  0  0  0  0  0  0  0  0  0  0
    3.5730    0.2915    0.3135 C   0  0  0  0  0  0  0  0  0  0  0  0
    4.1439   -0.3231   -0.7791 C   0  0  0  0  0  0  0  0  0  0  0  0
    5.5198   -0.2318   -0.6781 N   0  0  0  0  0  0  0  0  0  0  0  0
    5.7018    0.4141    0.4355 C   0  0  0  0  0  0  0  0  0  0  0  0
    6.9741    0.6540    0.8002 O   0  0  0  0  0  0  0  0  0  0  0  0
    4.5631    0.7743    1.1133 O   0  0  0  0  0  0  0  0  0  0  0  0
    3.3387   -0.9021   -1.7669 C   0  0  0  0  0  0  0  0  0  0  0  0
    4.1063   -1.7451   -3.3058 Br  0  0  0  0  0  0  0  0  0  0  0  0
    1.9434   -0.8475   -1.6141 C   0  0  0  0  0  0  0  0  0  0  0  0
   -3.3747    3.5558    0.9061 H   0  0  0  0  0  0  0  0  0  0  0  0
   -4.1190    1.2907    0.0874 H   0  0  0  0  0  0  0  0  0  0  0  0
    1.7899    0.8481    1.3534 H   0  0  0  0  0  0  0  0  0  0  0  0
    7.4900    0.2594    0.0834 H   0  0  0  0  0  0  0  0  0  0  0  0
    1.3343   -1.2705   -2.4052 H   0  0  0  0  0  0  0  0  0  0  0  0
  1  2  1  0
  2  3  1  0
  2  4  1  0
  2  5  1  0
  5  6  2  0
  5 17  1  0
  6  7  1  0
  7  8  2  0
  7 12  1  0
  8  9  1  0
  8 17  1  0
  9 10  2  0
 10 11  1  0
 10 13  1  0
 11 12  2  0
 11 29  1  0
 12 30  1  0
 13 14  1  0
 13 15  1  0
 13 16  1  0
 17 18  1  0
 18 19  2  0
 18 28  1  0
 19 20  1  0
 19 31  1  0
 20 21  2  0
 20 25  1  0
 21 22  1  0
 21 26  1  0
 22 23  2  0
 23 24  1  0
 23 25  1  0
 24 32  1  0
 26 27  1  0
 26 28  2  0
 28 33  1  0
M  END
>  <group_name>  (1) 
JNS

>  <molecule_index>  (1) 
01356

>  <conformer_index>  (1) 
07

>  <method>  (1) 
openff-1.3.0

>  <basis>  (1) 
smirnoff

>  <program>  (1) 
openmm

>  <initial_energy>  (1) 
129.83599064822175 kilocalorie / mole

>  <final_energy>  (1) 
115.29047755740442 kilocalorie / mole

$$$$
