JNS-01681-00
     RDKit          3D

 30 33  0  0  0  0  0  0  0  0999 V2000
    1.2492    3.2727    0.1466 F   0  0  0  0  0  0  0  0  0  0  0  0
    0.7557    2.0341    0.4433 C   0  0  0  0  0  0  0  0  0  0  0  0
    0.3154    2.0533    1.7372 F   0  0  0  0  0  0  0  0  0  0  0  0
   -0.3165    1.8001   -0.3696 F   0  0  0  0  0  0  0  0  0  0  0  0
    1.8352    0.9725    0.1954 C   0  0  0  0  0  0  0  0  0  0  0  0
    2.2341    0.1386    1.1975 N   0  0  0  0  0  0  0  0  0  0  0  0
    3.1926   -0.7691    0.9206 C   0  0  0  0  0  0  0  0  0  0  0  0
    3.7747   -0.8931   -0.3306 C   0  0  0  0  0  0  0  0  0  0  0  0
    3.3961   -0.0652   -1.3710 C   0  0  0  0  0  0  0  0  0  0  0  0
    2.4103    0.8813   -1.0943 C   0  0  0  0  0  0  0  0  0  0  0  0
    4.7174   -1.9059   -0.3672 N   0  0  0  0  0  0  0  0  0  0  0  0
    4.7084   -2.3973    0.8483 C   0  0  0  0  0  0  0  0  0  0  0  0
    3.7990   -1.7507    1.6926 N   0  0  0  0  0  0  0  0  0  0  0  0
    3.5728   -2.0737    3.0515 C   0  0  0  0  0  0  0  0  0  0  0  0
    4.0672   -3.2842    3.5916 C   0  0  0  0  0  0  0  0  0  0  0  0
    3.8442   -3.5967    4.9363 C   0  0  0  0  0  0  0  0  0  0  0  0
    3.1494   -2.7490    5.7544 C   0  0  0  0  0  0  0  0  0  0  0  0
    3.1153   -3.3626    6.9956 N   0  0  0  0  0  0  0  0  0  0  0  0
    3.7628   -4.5638    6.9838 N   0  0  0  0  0  0  0  0  0  0  0  0
    4.2087   -4.7293    5.7602 C   0  0  0  0  0  0  0  0  0  0  0  0
    2.6455   -1.5465    5.2655 C   0  0  0  0  0  0  0  0  0  0  0  0
    2.8590   -1.2125    3.9200 C   0  0  0  0  0  0  0  0  0  0  0  0
    3.8556   -0.1652   -2.3504 H   0  0  0  0  0  0  0  0  0  0  0  0
    2.0774    1.5559   -1.8775 H   0  0  0  0  0  0  0  0  0  0  0  0
    5.3552   -3.2139    1.1519 H   0  0  0  0  0  0  0  0  0  0  0  0
    4.6119   -4.0037    2.9907 H   0  0  0  0  0  0  0  0  0  0  0  0
    2.6569   -2.9635    7.8154 H   0  0  0  0  0  0  0  0  0  0  0  0
    4.7708   -5.5926    5.4168 H   0  0  0  0  0  0  0  0  0  0  0  0
    2.0950   -0.8716    5.9138 H   0  0  0  0  0  0  0  0  0  0  0  0
    2.4639   -0.2619    3.5809 H   0  0  0  0  0  0  0  0  0  0  0  0
  1  2  1  0
  2  3  1  0
  2  4  1  0
  2  5  1  0
  5  6  2  0
  5 10  1  0
  6  7  1  0
  7  8  2  0
  7 13  1  0
  8  9  1  0
  8 11  1  0
  9 10  2  0
  9 23  1  0
 10 24  1  0
 11 12  2  0
 12 13  1  0
 12 25  1  0
 13 14  1  0
 14 15  2  0
 14 22  1  0
 15 16  1  0
 15 26  1  0
 16 17  2  0
 16 20  1  0
 17 18  1  0
 17 21  1  0
 18 19  1  0
 18 27  1  0
 19 20  2  0
 20 28  1  0
 21 22  2  0
 21 29  1  0
 22 30  1  0
M  END
>  <group_name>  (1) 
JNS

>  <molecule_index>  (1) 
01681

>  <conformer_index>  (1) 
00

>  <method>  (1) 
openff-1.3.0

>  <basis>  (1) 
smirnoff

>  <program>  (1) 
openmm

>  <initial_energy>  (1) 
148.65720633460123 kilocalorie / mole

>  <final_energy>  (1) 
138.0834329948501 kilocalorie / mole

$$$$
