JNS-01364-08
     RDKit          3D

 34 37  0  0  0  0  0  0  0  0999 V2000
   -1.6269   -3.4688   -1.2593 F   0  0  0  0  0  0  0  0  0  0  0  0
   -0.5634   -2.6319   -1.4435 C   0  0  0  0  0  0  0  0  0  0  0  0
    0.4923   -3.1807   -0.7743 F   0  0  0  0  0  0  0  0  0  0  0  0
   -0.2676   -2.6149   -2.7765 F   0  0  0  0  0  0  0  0  0  0  0  0
   -0.8802   -1.2103   -0.9625 C   0  0  0  0  0  0  0  0  0  0  0  0
   -2.1086   -0.7211   -0.9937 N   0  0  0  0  0  0  0  0  0  0  0  0
   -2.0336    0.5191   -0.3845 C   0  0  0  0  0  0  0  0  0  0  0  0
   -0.7489    0.8028    0.0239 C   0  0  0  0  0  0  0  0  0  0  0  0
   -0.3928    1.9468    0.6393 N   0  0  0  0  0  0  0  0  0  0  0  0
   -1.3685    2.8684    0.8784 C   0  0  0  0  0  0  0  0  0  0  0  0
   -2.7083    2.6166    0.4821 C   0  0  0  0  0  0  0  0  0  0  0  0
   -3.0524    1.4261   -0.1602 C   0  0  0  0  0  0  0  0  0  0  0  0
   -1.0013    4.1850    1.5820 C   0  0  0  0  0  0  0  0  0  0  0  0
   -2.0840    5.0026    1.7500 F   0  0  0  0  0  0  0  0  0  0  0  0
   -0.0798    4.8751    0.8479 F   0  0  0  0  0  0  0  0  0  0  0  0
   -0.4841    3.9324    2.8197 F   0  0  0  0  0  0  0  0  0  0  0  0
    0.0093   -0.2839   -0.3715 N   0  0  0  0  0  0  0  0  0  0  0  0
    1.4143   -0.3554   -0.2836 C   0  0  0  0  0  0  0  0  0  0  0  0
    2.0759    0.1056    0.8730 C   0  0  0  0  0  0  0  0  0  0  0  0
    3.4713    0.0376    0.9524 C   0  0  0  0  0  0  0  0  0  0  0  0
    4.2144   -0.4610   -0.0847 C   0  0  0  0  0  0  0  0  0  0  0  0
    5.5355   -0.3799    0.3236 N   0  0  0  0  0  0  0  0  0  0  0  0
    5.6460    0.1475    1.5768 N   0  0  0  0  0  0  0  0  0  0  0  0
    4.4219    0.4109    1.9827 C   0  0  0  0  0  0  0  0  0  0  0  0
    4.0759    0.9707    3.2512 C   0  0  0  0  0  0  0  0  0  0  0  0
    3.7680    1.4184    4.2854 N   0  0  0  0  0  0  0  0  0  0  0  0
    3.5967   -0.9099   -1.2518 C   0  0  0  0  0  0  0  0  0  0  0  0
    2.1983   -0.8508   -1.3496 C   0  0  0  0  0  0  0  0  0  0  0  0
   -3.4869    3.3489    0.6723 H   0  0  0  0  0  0  0  0  0  0  0  0
   -4.0678    1.2032   -0.4774 H   0  0  0  0  0  0  0  0  0  0  0  0
    1.5126    0.5069    1.7121 H   0  0  0  0  0  0  0  0  0  0  0  0
    6.3291   -0.6764   -0.2456 H   0  0  0  0  0  0  0  0  0  0  0  0
    4.1872   -1.2932   -2.0788 H   0  0  0  0  0  0  0  0  0  0  0  0
    1.7371   -1.1726   -2.2771 H   0  0  0  0  0  0  0  0  0  0  0  0
  1  2  1  0
  2  3  1  0
  2  4  1  0
  2  5  1  0
  5  6  2  0
  5 17  1  0
  6  7  1  0
  7  8  2  0
  7 12  1  0
  8  9  1  0
  8 17  1  0
  9 10  2  0
 10 11  1  0
 10 13  1  0
 11 12  2  0
 11 29  1  0
 12 30  1  0
 13 14  1  0
 13 15  1  0
 13 16  1  0
 17 18  1  0
 18 19  2  0
 18 28  1  0
 19 20  1  0
 19 31  1  0
 20 21  2  0
 20 24  1  0
 21 22  1  0
 21 27  1  0
 22 23  1  0
 22 32  1  0
 23 24  2  0
 24 25  1  0
 25 26  3  0
 27 28  2  0
 27 33  1  0
 28 34  1  0
M  END
>  <group_name>  (1) 
JNS

>  <molecule_index>  (1) 
01364

>  <conformer_index>  (1) 
08

>  <method>  (1) 
openff-1.3.0

>  <basis>  (1) 
smirnoff

>  <program>  (1) 
openmm

>  <initial_energy>  (1) 
207.23445472779096 kilocalorie / mole

>  <final_energy>  (1) 
194.98542493589508 kilocalorie / mole

$$$$
