JNS-01658-07
     RDKit          3D

 38 41  0  0  0  0  0  0  0  0999 V2000
   -0.3478   -2.2483    1.6186 C   0  0  0  0  0  0  0  0  0  0  0  0
   -0.7490   -0.9153    1.0517 C   0  0  0  0  0  0  0  0  0  0  0  0
   -2.0067   -0.5457    1.0834 N   0  0  0  0  0  0  0  0  0  0  0  0
   -2.0384    0.6527    0.3893 C   0  0  0  0  0  0  0  0  0  0  0  0
   -0.7845    1.0095   -0.0707 C   0  0  0  0  0  0  0  0  0  0  0  0
   -0.5364    2.1331   -0.7734 N   0  0  0  0  0  0  0  0  0  0  0  0
   -1.5923    2.9515   -1.0453 C   0  0  0  0  0  0  0  0  0  0  0  0
   -2.8959    2.6246   -0.5985 C   0  0  0  0  0  0  0  0  0  0  0  0
   -3.1317    1.4588    0.1317 C   0  0  0  0  0  0  0  0  0  0  0  0
   -1.3953    4.2433   -1.8492 C   0  0  0  0  0  0  0  0  0  0  0  0
   -2.2145    4.2365   -2.9423 F   0  0  0  0  0  0  0  0  0  0  0  0
   -1.7271    5.3208   -1.0787 F   0  0  0  0  0  0  0  0  0  0  0  0
   -0.1109    4.4080   -2.2869 F   0  0  0  0  0  0  0  0  0  0  0  0
    0.0626    0.0124    0.3789 N   0  0  0  0  0  0  0  0  0  0  0  0
    1.4673    0.0013    0.2566 C   0  0  0  0  0  0  0  0  0  0  0  0
    2.2860   -0.4769    1.2991 C   0  0  0  0  0  0  0  0  0  0  0  0
    3.6740   -0.4763    1.1494 C   0  0  0  0  0  0  0  0  0  0  0  0
    4.2641    0.0036   -0.0076 C   0  0  0  0  0  0  0  0  0  0  0  0
    5.6385   -0.0951    0.1034 N   0  0  0  0  0  0  0  0  0  0  0  0
    5.9477   -0.5264    1.3601 C   0  0  0  0  0  0  0  0  0  0  0  0
    7.0841   -0.4459    1.8056 O   0  0  0  0  0  0  0  0  0  0  0  0
    4.7073   -0.9076    2.1577 C   0  0  0  0  0  0  0  0  0  0  0  0
    3.4887    0.5122   -1.0522 C   0  0  0  0  0  0  0  0  0  0  0  0
    4.1319    1.0392   -2.3109 C   0  0  0  0  0  0  0  0  0  0  0  0
    2.0902    0.5013   -0.9084 C   0  0  0  0  0  0  0  0  0  0  0  0
   -0.2586   -2.1734    2.7053 H   0  0  0  0  0  0  0  0  0  0  0  0
    0.5991   -2.5883    1.1930 H   0  0  0  0  0  0  0  0  0  0  0  0
   -1.1168   -2.9906    1.3871 H   0  0  0  0  0  0  0  0  0  0  0  0
   -3.7220    3.2914   -0.8272 H   0  0  0  0  0  0  0  0  0  0  0  0
   -4.1185    1.1796    0.4899 H   0  0  0  0  0  0  0  0  0  0  0  0
    1.8612   -0.8192    2.2367 H   0  0  0  0  0  0  0  0  0  0  0  0
    6.2733    0.5485   -0.3555 H   0  0  0  0  0  0  0  0  0  0  0  0
    4.6465   -0.3350    3.0861 H   0  0  0  0  0  0  0  0  0  0  0  0
    4.6772   -1.9837    2.3420 H   0  0  0  0  0  0  0  0  0  0  0  0
    4.8470    0.3099   -2.7034 H   0  0  0  0  0  0  0  0  0  0  0  0
    3.3806    1.2327   -3.0825 H   0  0  0  0  0  0  0  0  0  0  0  0
    4.6583    1.9743   -2.0976 H   0  0  0  0  0  0  0  0  0  0  0  0
    1.4809    0.8823   -1.7227 H   0  0  0  0  0  0  0  0  0  0  0  0
  1  2  1  0
  1 26  1  0
  1 27  1  0
  1 28  1  0
  2  3  2  0
  2 14  1  0
  3  4  1  0
  4  5  2  0
  4  9  1  0
  5  6  1  0
  5 14  1  0
  6  7  2  0
  7  8  1  0
  7 10  1  0
  8  9  2  0
  8 29  1  0
  9 30  1  0
 10 11  1  0
 10 12  1  0
 10 13  1  0
 14 15  1  0
 15 16  2  0
 15 25  1  0
 16 17  1  0
 16 31  1  0
 17 18  2  0
 17 22  1  0
 18 19  1  0
 18 23  1  0
 19 20  1  0
 19 32  1  0
 20 21  2  0
 20 22  1  0
 22 33  1  0
 22 34  1  0
 23 24  1  0
 23 25  2  0
 24 35  1  0
 24 36  1  0
 24 37  1  0
 25 38  1  0
M  END
>  <group_name>  (1) 
JNS

>  <molecule_index>  (1) 
01658

>  <conformer_index>  (1) 
07

>  <method>  (1) 
openff-1.3.0

>  <basis>  (1) 
smirnoff

>  <program>  (1) 
openmm

>  <initial_energy>  (1) 
83.07872369670122 kilocalorie / mole

>  <final_energy>  (1) 
71.27653655357338 kilocalorie / mole

$$$$
