JNS-01564-07
     RDKit          3D

 45 49  0  0  0  0  0  0  0  0999 V2000
   -2.6990    0.8389    2.6433 C   0  0  0  0  0  0  0  0  0  0  0  0
   -1.9429    0.3962    1.4153 C   0  0  0  0  0  0  0  0  0  0  0  0
   -2.6207   -0.0533    0.2779 C   0  0  0  0  0  0  0  0  0  0  0  0
   -3.9777   -0.1953    0.0579 N   0  0  0  0  0  0  0  0  0  0  0  0
   -4.1652   -0.7984   -1.1520 C   0  0  0  0  0  0  0  0  0  0  0  0
   -5.2514   -1.2648   -1.4677 O   0  0  0  0  0  0  0  0  0  0  0  0
   -2.8606   -0.9686   -1.9198 C   0  0  0  0  0  0  0  0  0  0  0  0
   -1.9287   -0.4671   -0.8479 C   0  0  0  0  0  0  0  0  0  0  0  0
   -0.5345   -0.4305   -0.8863 C   0  0  0  0  0  0  0  0  0  0  0  0
    0.1781    0.0434    0.2285 C   0  0  0  0  0  0  0  0  0  0  0  0
   -0.5378    0.4405    1.3765 C   0  0  0  0  0  0  0  0  0  0  0  0
    1.6492    0.1010    0.1964 C   0  0  0  0  0  0  0  0  0  0  0  0
    2.4929   -0.8343   -0.3385 C   0  0  0  0  0  0  0  0  0  0  0  0
    2.2093   -1.9973   -0.9557 N   0  0  0  0  0  0  0  0  0  0  0  0
    3.2586   -2.7559   -1.3807 C   0  0  0  0  0  0  0  0  0  0  0  0
    4.5933   -2.3308   -1.1748 C   0  0  0  0  0  0  0  0  0  0  0  0
    4.8690   -1.1251   -0.5310 C   0  0  0  0  0  0  0  0  0  0  0  0
    3.7812   -0.3777   -0.1132 C   0  0  0  0  0  0  0  0  0  0  0  0
    3.8062    0.7705    0.5078 N   0  0  0  0  0  0  0  0  0  0  0  0
    2.4966    1.0987    0.6901 N   0  0  0  0  0  0  0  0  0  0  0  0
    2.0596    2.4123    1.2003 C   0  0  0  0  0  0  0  0  0  0  0  0
    3.0359    3.5863    1.0499 C   0  0  0  0  0  0  0  0  0  0  0  0
    1.9078    4.4508    0.5025 C   0  0  0  0  0  0  0  0  0  0  0  0
    1.0659    3.1933    0.3337 C   0  0  0  0  0  0  0  0  0  0  0  0
    3.0172   -4.0871   -2.1006 C   0  0  0  0  0  0  0  0  0  0  0  0
    3.6377   -4.0754   -3.3180 F   0  0  0  0  0  0  0  0  0  0  0  0
    3.5468   -5.1117   -1.3687 F   0  0  0  0  0  0  0  0  0  0  0  0
    1.6921   -4.3514   -2.3085 F   0  0  0  0  0  0  0  0  0  0  0  0
   -3.1440   -0.0286    3.1400 H   0  0  0  0  0  0  0  0  0  0  0  0
   -3.4961    1.5352    2.3653 H   0  0  0  0  0  0  0  0  0  0  0  0
   -2.0349    1.3433    3.3515 H   0  0  0  0  0  0  0  0  0  0  0  0
   -4.6338   -0.4054    0.8011 H   0  0  0  0  0  0  0  0  0  0  0  0
   -2.6806   -2.0179   -2.1661 H   0  0  0  0  0  0  0  0  0  0  0  0
   -2.8418   -0.3355   -2.8095 H   0  0  0  0  0  0  0  0  0  0  0  0
   -0.0072   -0.7683   -1.7748 H   0  0  0  0  0  0  0  0  0  0  0  0
    0.0036    0.7678    2.2574 H   0  0  0  0  0  0  0  0  0  0  0  0
    5.4117   -2.9532   -1.5225 H   0  0  0  0  0  0  0  0  0  0  0  0
    5.8852   -0.7803   -0.3604 H   0  0  0  0  0  0  0  0  0  0  0  0
    1.7172    2.3246    2.2354 H   0  0  0  0  0  0  0  0  0  0  0  0
    3.4723    3.9367    1.9905 H   0  0  0  0  0  0  0  0  0  0  0  0
    3.8287    3.4208    0.3121 H   0  0  0  0  0  0  0  0  0  0  0  0
    2.1430    4.9724   -0.4312 H   0  0  0  0  0  0  0  0  0  0  0  0
    1.5006    5.1532    1.2377 H   0  0  0  0  0  0  0  0  0  0  0  0
    0.0531    3.2598    0.7437 H   0  0  0  0  0  0  0  0  0  0  0  0
    1.0248    2.8484   -0.7057 H   0  0  0  0  0  0  0  0  0  0  0  0
  1  2  1  0
  1 29  1  0
  1 30  1  0
  1 31  1  0
  2  3  2  0
  2 11  1  0
  3  4  1  0
  3  8  1  0
  4  5  1  0
  4 32  1  0
  5  6  2  0
  5  7  1  0
  7  8  1  0
  7 33  1  0
  7 34  1  0
  8  9  2  0
  9 10  1  0
  9 35  1  0
 10 11  2  0
 10 12  1  0
 11 36  1  0
 12 13  2  0
 12 20  1  0
 13 14  1  0
 13 18  1  0
 14 15  2  0
 15 16  1  0
 15 25  1  0
 16 17  2  0
 16 37  1  0
 17 18  1  0
 17 38  1  0
 18 19  2  0
 19 20  1  0
 20 21  1  0
 21 22  1  0
 21 24  1  0
 21 39  1  0
 22 23  1  0
 22 40  1  0
 22 41  1  0
 23 24  1  0
 23 42  1  0
 23 43  1  0
 24 44  1  0
 24 45  1  0
 25 26  1  0
 25 27  1  0
 25 28  1  0
M  END
>  <group_name>  (1) 
JNS

>  <molecule_index>  (1) 
01564

>  <conformer_index>  (1) 
07

>  <method>  (1) 
openff-1.3.0

>  <basis>  (1) 
smirnoff

>  <program>  (1) 
openmm

>  <initial_energy>  (1) 
139.8780636549183 kilocalorie / mole

>  <final_energy>  (1) 
125.86757039998652 kilocalorie / mole

$$$$
