JNS-01374-06
     RDKit          3D

 32 35  0  0  0  0  0  0  0  0999 V2000
   -0.7533    0.5801   -0.5805 F   0  0  0  0  0  0  0  0  0  0  0  0
   -0.0753    0.0688    0.4887 C   0  0  0  0  0  0  0  0  0  0  0  0
   -0.6199   -1.1416    0.8075 F   0  0  0  0  0  0  0  0  0  0  0  0
   -0.2887    0.8928    1.5568 F   0  0  0  0  0  0  0  0  0  0  0  0
    1.4177   -0.0403    0.1544 C   0  0  0  0  0  0  0  0  0  0  0  0
    2.2602    0.9493    0.4009 N   0  0  0  0  0  0  0  0  0  0  0  0
    3.5160    0.4621    0.0852 C   0  0  0  0  0  0  0  0  0  0  0  0
    3.4510   -0.8389   -0.3627 C   0  0  0  0  0  0  0  0  0  0  0  0
    4.5229   -1.5585   -0.7458 N   0  0  0  0  0  0  0  0  0  0  0  0
    5.7431   -0.9546   -0.6710 C   0  0  0  0  0  0  0  0  0  0  0  0
    5.8623    0.3796   -0.2105 C   0  0  0  0  0  0  0  0  0  0  0  0
    4.7357    1.1077    0.1752 C   0  0  0  0  0  0  0  0  0  0  0  0
    7.0166   -1.7051   -1.0814 C   0  0  0  0  0  0  0  0  0  0  0  0
    7.6242   -1.0480   -2.1127 F   0  0  0  0  0  0  0  0  0  0  0  0
    6.7730   -2.9902   -1.4759 F   0  0  0  0  0  0  0  0  0  0  0  0
    7.8873   -1.7410   -0.0299 F   0  0  0  0  0  0  0  0  0  0  0  0
    2.1065   -1.1661   -0.3577 N   0  0  0  0  0  0  0  0  0  0  0  0
    1.5716   -2.3654   -0.8840 C   0  0  0  0  0  0  0  0  0  0  0  0
    0.4025   -2.3714   -1.6588 C   0  0  0  0  0  0  0  0  0  0  0  0
   -0.0378   -3.5970   -2.1370 C   0  0  0  0  0  0  0  0  0  0  0  0
    0.6608   -4.7367   -1.8621 C   0  0  0  0  0  0  0  0  0  0  0  0
   -0.0229   -5.7629   -2.4728 N   0  0  0  0  0  0  0  0  0  0  0  0
   -1.1352   -5.3173   -3.1315 N   0  0  0  0  0  0  0  0  0  0  0  0
   -1.1638   -4.0175   -2.9440 C   0  0  0  0  0  0  0  0  0  0  0  0
    1.7853   -4.7899   -1.1448 N   0  0  0  0  0  0  0  0  0  0  0  0
    2.2317   -3.6048   -0.6745 C   0  0  0  0  0  0  0  0  0  0  0  0
    6.8443    0.8409   -0.1588 H   0  0  0  0  0  0  0  0  0  0  0  0
    4.7925    2.1330    0.5313 H   0  0  0  0  0  0  0  0  0  0  0  0
   -0.1420   -1.4659   -1.9093 H   0  0  0  0  0  0  0  0  0  0  0  0
    0.2972   -6.7281   -2.4250 H   0  0  0  0  0  0  0  0  0  0  0  0
   -1.9270   -3.3532   -3.3395 H   0  0  0  0  0  0  0  0  0  0  0  0
    3.1378   -3.6284   -0.0770 H   0  0  0  0  0  0  0  0  0  0  0  0
  1  2  1  0
  2  3  1  0
  2  4  1  0
  2  5  1  0
  5  6  2  0
  5 17  1  0
  6  7  1  0
  7  8  2  0
  7 12  1  0
  8  9  1  0
  8 17  1  0
  9 10  2  0
 10 11  1  0
 10 13  1  0
 11 12  2  0
 11 27  1  0
 12 28  1  0
 13 14  1  0
 13 15  1  0
 13 16  1  0
 17 18  1  0
 18 19  2  0
 18 26  1  0
 19 20  1  0
 19 29  1  0
 20 21  2  0
 20 24  1  0
 21 22  1  0
 21 25  1  0
 22 23  1  0
 22 30  1  0
 23 24  2  0
 24 31  1  0
 25 26  2  0
 26 32  1  0
M  END
>  <group_name>  (1) 
JNS

>  <molecule_index>  (1) 
01374

>  <conformer_index>  (1) 
06

>  <method>  (1) 
openff-1.3.0

>  <basis>  (1) 
smirnoff

>  <program>  (1) 
openmm

>  <initial_energy>  (1) 
168.8093052637931 kilocalorie / mole

>  <final_energy>  (1) 
154.6741795257586 kilocalorie / mole

$$$$
