JNS-01242-06
     RDKit          3D

 41 45  0  0  0  0  0  0  0  0999 V2000
   -0.3559    4.7728    1.3984 F   0  0  0  0  0  0  0  0  0  0  0  0
   -1.5984    4.3676    0.9987 C   0  0  0  0  0  0  0  0  0  0  0  0
   -1.9814    5.1394   -0.0607 F   0  0  0  0  0  0  0  0  0  0  0  0
   -2.4676    4.5984    2.0268 F   0  0  0  0  0  0  0  0  0  0  0  0
   -1.6455    2.8861    0.6030 C   0  0  0  0  0  0  0  0  0  0  0  0
   -2.8934    2.3214    0.2425 C   0  0  0  0  0  0  0  0  0  0  0  0
   -2.9929    0.9774   -0.1203 C   0  0  0  0  0  0  0  0  0  0  0  0
   -1.8232    0.2408   -0.1074 C   0  0  0  0  0  0  0  0  0  0  0  0
   -1.6528   -1.0964   -0.4172 N   0  0  0  0  0  0  0  0  0  0  0  0
   -0.3701   -1.3308   -0.2477 C   0  0  0  0  0  0  0  0  0  0  0  0
    0.2251   -2.7249   -0.3769 C   0  0  2  0  0  0  0  0  0  0  0  0
    0.2227   -3.2237   -1.8173 C   0  0  0  0  0  0  0  0  0  0  0  0
   -1.1544   -3.8475   -1.9734 C   0  0  0  0  0  0  0  0  0  0  0  0
   -1.4828   -4.3720   -0.6793 O   0  0  0  0  0  0  0  0  0  0  0  0
   -0.6346   -3.7796    0.3188 C   0  0  0  0  0  0  0  0  0  0  0  0
    0.3189   -0.1652    0.1346 N   0  0  0  0  0  0  0  0  0  0  0  0
   -0.6304    0.8320    0.2550 C   0  0  0  0  0  0  0  0  0  0  0  0
   -0.5119    2.1283    0.6052 N   0  0  0  0  0  0  0  0  0  0  0  0
    1.7092    0.0139    0.2738 C   0  0  0  0  0  0  0  0  0  0  0  0
    2.2261    0.8583    1.2823 C   0  0  0  0  0  0  0  0  0  0  0  0
    3.6089    1.0506    1.4293 C   0  0  0  0  0  0  0  0  0  0  0  0
    4.4773    0.3986    0.5605 C   0  0  0  0  0  0  0  0  0  0  0  0
    5.8531    0.4295    0.5056 N   0  0  0  0  0  0  0  0  0  0  0  0
    6.1262   -0.3454   -0.5039 C   0  0  0  0  0  0  0  0  0  0  0  0
    7.4250   -0.5135   -0.8097 O   0  0  0  0  0  0  0  0  0  0  0  0
    5.0455   -0.9082   -1.1414 O   0  0  0  0  0  0  0  0  0  0  0  0
    3.9911   -0.4146   -0.4362 C   0  0  0  0  0  0  0  0  0  0  0  0
    2.6209   -0.6131   -0.6013 C   0  0  0  0  0  0  0  0  0  0  0  0
   -3.7835    2.9435    0.2486 H   0  0  0  0  0  0  0  0  0  0  0  0
   -3.9333    0.5119   -0.4020 H   0  0  0  0  0  0  0  0  0  0  0  0
    1.2311   -2.7411    0.0474 H   0  0  0  0  0  0  0  0  0  0  0  0
    0.3973   -2.4257   -2.5459 H   0  0  0  0  0  0  0  0  0  0  0  0
    0.9846   -3.9993   -1.9458 H   0  0  0  0  0  0  0  0  0  0  0  0
   -1.1424   -4.6374   -2.7308 H   0  0  0  0  0  0  0  0  0  0  0  0
   -1.8913   -3.0916   -2.2643 H   0  0  0  0  0  0  0  0  0  0  0  0
    0.0057   -4.5597    0.7426 H   0  0  0  0  0  0  0  0  0  0  0  0
   -1.2239   -3.3421    1.1317 H   0  0  0  0  0  0  0  0  0  0  0  0
    1.5549    1.3693    1.9669 H   0  0  0  0  0  0  0  0  0  0  0  0
    4.0096    1.6976    2.2030 H   0  0  0  0  0  0  0  0  0  0  0  0
    7.8801    0.0348   -0.1556 H   0  0  0  0  0  0  0  0  0  0  0  0
    2.2907   -1.2324   -1.4269 H   0  0  0  0  0  0  0  0  0  0  0  0
  1  2  1  0
  2  3  1  0
  2  4  1  0
  2  5  1  0
  5  6  2  0
  5 18  1  0
  6  7  1  0
  6 29  1  0
  7  8  2  0
  7 30  1  0
  8  9  1  0
  8 17  1  0
  9 10  2  0
 10 11  1  0
 10 16  1  0
 11 12  1  0
 11 15  1  0
 11 31  1  1
 12 13  1  0
 12 32  1  0
 12 33  1  0
 13 14  1  0
 13 34  1  0
 13 35  1  0
 14 15  1  0
 15 36  1  0
 15 37  1  0
 16 17  1  0
 16 19  1  0
 17 18  2  0
 19 20  2  0
 19 28  1  0
 20 21  1  0
 20 38  1  0
 21 22  2  0
 21 39  1  0
 22 23  1  0
 22 27  1  0
 23 24  2  0
 24 25  1  0
 24 26  1  0
 25 40  1  0
 26 27  1  0
 27 28  2  0
 28 41  1  0
M  END
>  <group_name>  (1) 
JNS

>  <molecule_index>  (1) 
01242

>  <conformer_index>  (1) 
06

>  <method>  (1) 
openff-1.3.0

>  <basis>  (1) 
smirnoff

>  <program>  (1) 
openmm

>  <initial_energy>  (1) 
100.06617466149594 kilocalorie / mole

>  <final_energy>  (1) 
80.6011994468922 kilocalorie / mole

$$$$
