JNS-01948-00
     RDKit          3D

 33 34  0  0  0  0  0  0  0  0999 V2000
   -0.6971    1.1820   -0.3588 C   0  0  0  0  0  0  0  0  0  0  0  0
    0.0678   -0.0372   -0.3904 O   0  0  0  0  0  0  0  0  0  0  0  0
    1.4215    0.0898   -0.1683 C   0  0  0  0  0  0  0  0  0  0  0  0
    1.9825    1.2947    0.0516 N   0  0  0  0  0  0  0  0  0  0  0  0
    3.3215    1.3671    0.2719 C   0  0  0  0  0  0  0  0  0  0  0  0
    4.1114    0.2024    0.2637 C   0  0  0  0  0  0  0  0  0  0  0  0
    3.5472   -1.0441    0.0221 C   0  0  0  0  0  0  0  0  0  0  0  0
    4.3759   -2.3063    0.0259 C   0  0  0  0  0  0  0  0  0  0  0  0
    4.6232   -2.8174   -1.4026 C   0  0  2  0  0  0  0  0  0  0  0  0
    5.3914   -4.1501   -1.3976 C   0  0  0  0  0  0  0  0  0  0  0  0
    6.3572   -4.0426   -2.5634 C   0  0  0  0  0  0  0  0  0  0  0  0
    6.7100   -2.6318   -2.4736 N   0  0  0  0  0  0  0  0  0  0  0  0
    5.4874   -1.8656   -2.2426 C   0  0  0  0  0  0  0  0  0  0  0  0
    2.1754   -1.0797   -0.1840 C   0  0  0  0  0  0  0  0  0  0  0  0
    4.0090    2.7160    0.5327 C   0  0  0  0  0  0  0  0  0  0  0  0
    4.6233    2.6944    1.7527 F   0  0  0  0  0  0  0  0  0  0  0  0
    4.9649    2.9375   -0.4180 F   0  0  0  0  0  0  0  0  0  0  0  0
    3.1404    3.7712    0.5137 F   0  0  0  0  0  0  0  0  0  0  0  0
   -0.6108    1.6668    0.6192 H   0  0  0  0  0  0  0  0  0  0  0  0
   -1.7527    0.9613   -0.5423 H   0  0  0  0  0  0  0  0  0  0  0  0
   -0.3501    1.8757   -1.1317 H   0  0  0  0  0  0  0  0  0  0  0  0
    5.1788    0.2871    0.4462 H   0  0  0  0  0  0  0  0  0  0  0  0
    3.8526   -3.0755    0.6030 H   0  0  0  0  0  0  0  0  0  0  0  0
    5.3340   -2.1232    0.5241 H   0  0  0  0  0  0  0  0  0  0  0  0
    3.6628   -2.9576   -1.9092 H   0  0  0  0  0  0  0  0  0  0  0  0
    4.7269   -5.0130   -1.5019 H   0  0  0  0  0  0  0  0  0  0  0  0
    5.9653   -4.2567   -0.4709 H   0  0  0  0  0  0  0  0  0  0  0  0
    5.8474   -4.2601   -3.5084 H   0  0  0  0  0  0  0  0  0  0  0  0
    7.2243   -4.7013   -2.4479 H   0  0  0  0  0  0  0  0  0  0  0  0
    7.2462   -2.2959   -3.2744 H   0  0  0  0  0  0  0  0  0  0  0  0
    5.7024   -0.9197   -1.7357 H   0  0  0  0  0  0  0  0  0  0  0  0
    4.9827   -1.6531   -3.1912 H   0  0  0  0  0  0  0  0  0  0  0  0
    1.6601   -2.0156   -0.3636 H   0  0  0  0  0  0  0  0  0  0  0  0
  1  2  1  0
  1 19  1  0
  1 20  1  0
  1 21  1  0
  2  3  1  0
  3  4  2  0
  3 14  1  0
  4  5  1  0
  5  6  2  0
  5 15  1  0
  6  7  1  0
  6 22  1  0
  7  8  1  0
  7 14  2  0
  8  9  1  0
  8 23  1  0
  8 24  1  0
  9 10  1  0
  9 13  1  0
  9 25  1  6
 10 11  1  0
 10 26  1  0
 10 27  1  0
 11 12  1  0
 11 28  1  0
 11 29  1  0
 12 13  1  0
 12 30  1  0
 13 31  1  0
 13 32  1  0
 14 33  1  0
 15 16  1  0
 15 17  1  0
 15 18  1  0
M  END
>  <group_name>  (1) 
JNS

>  <molecule_index>  (1) 
01948

>  <conformer_index>  (1) 
00

>  <method>  (1) 
openff-1.3.0

>  <basis>  (1) 
smirnoff

>  <program>  (1) 
openmm

>  <initial_energy>  (1) 
50.370741948611276 kilocalorie / mole

>  <final_energy>  (1) 
44.21958029197013 kilocalorie / mole

$$$$
