JNS-02002-00
     RDKit          3D

 38 40  0  0  0  0  0  0  0  0999 V2000
   -0.1542    0.0859   -0.6294 C   0  0  0  0  0  0  0  0  0  0  0  0
    1.2996    0.1027   -0.2566 C   0  0  0  0  0  0  0  0  0  0  0  0
    1.8690   -1.0623    0.0825 N   0  0  0  0  0  0  0  0  0  0  0  0
    3.1820   -1.0728    0.4258 C   0  0  0  0  0  0  0  0  0  0  0  0
    3.9288    0.1166    0.4244 C   0  0  0  0  0  0  0  0  0  0  0  0
    3.3526    1.3287    0.0736 C   0  0  0  0  0  0  0  0  0  0  0  0
    2.0097    1.3022   -0.2703 C   0  0  0  0  0  0  0  0  0  0  0  0
    4.0911    2.5204    0.0690 N   0  0  0  0  0  0  0  0  0  0  0  0
    5.4832    2.6077    0.5201 C   0  0  0  0  0  0  0  0  0  0  0  0
    5.7191    4.1122    0.5569 C   0  0  0  0  0  0  0  0  0  0  0  0
    4.8234    4.6641   -0.5596 C   0  0  2  0  0  0  0  0  0  0  0  0
    5.4817    4.5362   -1.9563 C   0  0  0  0  0  0  0  0  0  0  0  0
    5.6855    5.9677   -2.4252 C   0  0  0  0  0  0  0  0  0  0  0  0
    4.5638    6.6456   -1.7854 N   0  0  0  0  0  0  0  0  0  0  0  0
    4.5250    6.1605   -0.4078 C   0  0  0  0  0  0  0  0  0  0  0  0
    3.5633    3.7951   -0.4307 C   0  0  0  0  0  0  0  0  0  0  0  0
    3.8853   -2.3800    0.8228 C   0  0  0  0  0  0  0  0  0  0  0  0
    4.9300   -2.6204   -0.0247 F   0  0  0  0  0  0  0  0  0  0  0  0
    4.3899   -2.2694    2.0881 F   0  0  0  0  0  0  0  0  0  0  0  0
    3.0577   -3.4674    0.7920 F   0  0  0  0  0  0  0  0  0  0  0  0
   -0.3062   -0.5787   -1.4844 H   0  0  0  0  0  0  0  0  0  0  0  0
   -0.5073    1.0860   -0.8939 H   0  0  0  0  0  0  0  0  0  0  0  0
   -0.7448   -0.2848    0.2130 H   0  0  0  0  0  0  0  0  0  0  0  0
    4.9741    0.0599    0.7006 H   0  0  0  0  0  0  0  0  0  0  0  0
    1.4892    2.2091   -0.5471 H   0  0  0  0  0  0  0  0  0  0  0  0
    5.6264    2.1700    1.5135 H   0  0  0  0  0  0  0  0  0  0  0  0
    6.1507    2.1268   -0.2025 H   0  0  0  0  0  0  0  0  0  0  0  0
    6.7760    4.3612    0.4207 H   0  0  0  0  0  0  0  0  0  0  0  0
    5.3873    4.5058    1.5234 H   0  0  0  0  0  0  0  0  0  0  0  0
    6.4323    3.9944   -1.9369 H   0  0  0  0  0  0  0  0  0  0  0  0
    4.8148    4.0190   -2.6532 H   0  0  0  0  0  0  0  0  0  0  0  0
    5.6640    6.0564   -3.5165 H   0  0  0  0  0  0  0  0  0  0  0  0
    6.6360    6.3608   -2.0474 H   0  0  0  0  0  0  0  0  0  0  0  0
    3.7021    6.3822   -2.2635 H   0  0  0  0  0  0  0  0  0  0  0  0
    3.5583    6.3570    0.0681 H   0  0  0  0  0  0  0  0  0  0  0  0
    5.3106    6.6459    0.1823 H   0  0  0  0  0  0  0  0  0  0  0  0
    2.8649    4.2214    0.2970 H   0  0  0  0  0  0  0  0  0  0  0  0
    3.0566    3.6810   -1.3942 H   0  0  0  0  0  0  0  0  0  0  0  0
  1  2  1  0
  1 21  1  0
  1 22  1  0
  1 23  1  0
  2  3  2  0
  2  7  1  0
  3  4  1  0
  4  5  2  0
  4 17  1  0
  5  6  1  0
  5 24  1  0
  6  7  2  0
  6  8  1  0
  7 25  1  0
  8  9  1  0
  8 16  1  0
  9 10  1  0
  9 26  1  0
  9 27  1  0
 11 10  1  1
 10 28  1  0
 10 29  1  0
 11 12  1  0
 11 15  1  0
 11 16  1  0
 12 13  1  0
 12 30  1  0
 12 31  1  0
 13 14  1  0
 13 32  1  0
 13 33  1  0
 14 15  1  0
 14 34  1  0
 15 35  1  0
 15 36  1  0
 16 37  1  0
 16 38  1  0
 17 18  1  0
 17 19  1  0
 17 20  1  0
M  END
>  <group_name>  (1) 
JNS

>  <molecule_index>  (1) 
02002

>  <conformer_index>  (1) 
00

>  <method>  (1) 
openff-1.3.0

>  <basis>  (1) 
smirnoff

>  <program>  (1) 
openmm

>  <initial_energy>  (1) 
39.84539985065687 kilocalorie / mole

>  <final_energy>  (1) 
31.647053143287536 kilocalorie / mole

$$$$
