JNS-01242-00
     RDKit          3D

 41 45  0  0  0  0  0  0  0  0999 V2000
   -1.7242    4.9296    1.7877 F   0  0  0  0  0  0  0  0  0  0  0  0
   -1.0091    4.5884    0.6752 C   0  0  0  0  0  0  0  0  0  0  0  0
    0.3081    4.8631    0.9122 F   0  0  0  0  0  0  0  0  0  0  0  0
   -1.4284    5.3808   -0.3554 F   0  0  0  0  0  0  0  0  0  0  0  0
   -1.2627    3.1152    0.3302 C   0  0  0  0  0  0  0  0  0  0  0  0
   -2.5854    2.7109    0.0246 C   0  0  0  0  0  0  0  0  0  0  0  0
   -2.8728    1.3837   -0.2976 C   0  0  0  0  0  0  0  0  0  0  0  0
   -1.8098    0.4996   -0.3028 C   0  0  0  0  0  0  0  0  0  0  0  0
   -1.8246   -0.8552   -0.5882 N   0  0  0  0  0  0  0  0  0  0  0  0
   -0.5745   -1.2418   -0.4673 C   0  0  0  0  0  0  0  0  0  0  0  0
   -0.1629   -2.6578   -0.8103 C   0  0  2  0  0  0  0  0  0  0  0  0
   -0.6466   -3.1610   -2.1615 C   0  0  0  0  0  0  0  0  0  0  0  0
   -0.5002   -4.6670   -2.0015 C   0  0  0  0  0  0  0  0  0  0  0  0
   -0.6540   -4.9341   -0.5962 O   0  0  0  0  0  0  0  0  0  0  0  0
   -0.7687   -3.6947    0.1197 C   0  0  0  0  0  0  0  0  0  0  0  0
    0.2626   -0.1844   -0.0728 N   0  0  0  0  0  0  0  0  0  0  0  0
   -0.5360    0.9408   -0.0030 C   0  0  0  0  0  0  0  0  0  0  0  0
   -0.2383    2.2156    0.3153 N   0  0  0  0  0  0  0  0  0  0  0  0
    1.6268   -0.2385    0.2698 C   0  0  0  0  0  0  0  0  0  0  0  0
    2.1556   -1.3147    1.0182 C   0  0  0  0  0  0  0  0  0  0  0  0
    3.5178   -1.3601    1.3557 C   0  0  0  0  0  0  0  0  0  0  0  0
    4.3488   -0.3215    0.9506 C   0  0  0  0  0  0  0  0  0  0  0  0
    5.6985   -0.1491    1.1616 N   0  0  0  0  0  0  0  0  0  0  0  0
    5.9435    0.9899    0.5795 C   0  0  0  0  0  0  0  0  0  0  0  0
    7.2128    1.4333    0.6198 O   0  0  0  0  0  0  0  0  0  0  0  0
    4.8690    1.6059   -0.0163 O   0  0  0  0  0  0  0  0  0  0  0  0
    3.8475    0.7425    0.2378 C   0  0  0  0  0  0  0  0  0  0  0  0
    2.4967    0.8062   -0.1043 C   0  0  0  0  0  0  0  0  0  0  0  0
   -3.3855    3.4451    0.0427 H   0  0  0  0  0  0  0  0  0  0  0  0
   -3.8759    1.0413   -0.5359 H   0  0  0  0  0  0  0  0  0  0  0  0
    0.9255   -2.7460   -0.7893 H   0  0  0  0  0  0  0  0  0  0  0  0
   -0.0530   -2.7691   -2.9931 H   0  0  0  0  0  0  0  0  0  0  0  0
   -1.7013   -2.9114   -2.3215 H   0  0  0  0  0  0  0  0  0  0  0  0
   -1.2544   -5.1974   -2.5915 H   0  0  0  0  0  0  0  0  0  0  0  0
    0.4939   -4.9891   -2.3280 H   0  0  0  0  0  0  0  0  0  0  0  0
   -1.8257   -3.4783    0.3107 H   0  0  0  0  0  0  0  0  0  0  0  0
   -0.2374   -3.7322    1.0754 H   0  0  0  0  0  0  0  0  0  0  0  0
    1.5119   -2.1131    1.3709 H   0  0  0  0  0  0  0  0  0  0  0  0
    3.9345   -2.1800    1.9319 H   0  0  0  0  0  0  0  0  0  0  0  0
    7.6724    0.7471    1.1222 H   0  0  0  0  0  0  0  0  0  0  0  0
    2.1402    1.6653   -0.6646 H   0  0  0  0  0  0  0  0  0  0  0  0
  1  2  1  0
  2  3  1  0
  2  4  1  0
  2  5  1  0
  5  6  2  0
  5 18  1  0
  6  7  1  0
  6 29  1  0
  7  8  2  0
  7 30  1  0
  8  9  1  0
  8 17  1  0
  9 10  2  0
 10 11  1  0
 10 16  1  0
 11 12  1  0
 11 15  1  0
 11 31  1  6
 12 13  1  0
 12 32  1  0
 12 33  1  0
 13 14  1  0
 13 34  1  0
 13 35  1  0
 14 15  1  0
 15 36  1  0
 15 37  1  0
 16 17  1  0
 16 19  1  0
 17 18  2  0
 19 20  2  0
 19 28  1  0
 20 21  1  0
 20 38  1  0
 21 22  2  0
 21 39  1  0
 22 23  1  0
 22 27  1  0
 23 24  2  0
 24 25  1  0
 24 26  1  0
 25 40  1  0
 26 27  1  0
 27 28  2  0
 28 41  1  0
M  END
>  <group_name>  (1) 
JNS

>  <molecule_index>  (1) 
01242

>  <conformer_index>  (1) 
00

>  <method>  (1) 
openff-1.3.0

>  <basis>  (1) 
smirnoff

>  <program>  (1) 
openmm

>  <initial_energy>  (1) 
98.7366230412357 kilocalorie / mole

>  <final_energy>  (1) 
79.5538523463176 kilocalorie / mole

$$$$
