JNS-02456-07
     RDKit          3D

 41 44  0  0  0  0  0  0  0  0999 V2000
   -1.6801    2.5638    1.9043 F   0  0  0  0  0  0  0  0  0  0  0  0
   -2.4955    1.8908    1.0389 C   0  0  0  0  0  0  0  0  0  0  0  0
   -3.5084    1.3267    1.7612 F   0  0  0  0  0  0  0  0  0  0  0  0
   -3.0452    2.7971    0.1775 F   0  0  0  0  0  0  0  0  0  0  0  0
   -1.7599    0.8038    0.2446 C   0  0  0  0  0  0  0  0  0  0  0  0
   -0.4268    0.5944    0.4148 N   0  0  0  0  0  0  0  0  0  0  0  0
    0.1949   -0.3653   -0.2986 C   0  0  0  0  0  0  0  0  0  0  0  0
   -0.5150   -1.1684   -1.2078 C   0  0  0  0  0  0  0  0  0  0  0  0
   -1.8768   -0.9775   -1.4020 C   0  0  0  0  0  0  0  0  0  0  0  0
   -2.4965    0.0229   -0.6657 C   0  0  0  0  0  0  0  0  0  0  0  0
    1.6366   -0.5550   -0.0932 C   0  0  0  0  0  0  0  0  0  0  0  0
    2.2331   -0.1059    1.1080 C   0  0  0  0  0  0  0  0  0  0  0  0
    3.5453   -0.2438    1.3984 N   0  0  0  0  0  0  0  0  0  0  0  0
    4.2871   -0.8346    0.4565 C   0  0  0  0  0  0  0  0  0  0  0  0
    5.7001   -1.1114    0.4965 C   0  0  0  0  0  0  0  0  0  0  0  0
    6.0350   -1.7357   -0.6883 C   0  0  0  0  0  0  0  0  0  0  0  0
    4.8731   -1.8599   -1.4537 N   0  0  0  0  0  0  0  0  0  0  0  0
    4.7834   -2.5138   -2.7662 C   0  0  0  0  0  0  0  0  0  0  0  0
    3.8014   -3.6855   -2.8109 C   0  0  0  0  0  0  0  0  0  0  0  0
    3.1513   -3.8568   -3.8366 O   0  0  0  0  0  0  0  0  0  0  0  0
    3.5252   -4.4971   -1.7220 N   0  0  0  0  0  0  0  0  0  0  0  0
    2.8848   -5.7814   -1.8033 C   0  0  0  0  0  0  0  0  0  0  0  0
    3.8106   -6.2333   -0.6446 C   0  0  0  0  0  0  0  0  0  0  0  0
    4.7035   -7.1982   -1.0066 F   0  0  0  0  0  0  0  0  0  0  0  0
    3.1400   -6.5461    0.5004 F   0  0  0  0  0  0  0  0  0  0  0  0
    4.4181   -4.8063   -0.6382 C   0  0  0  0  0  0  0  0  0  0  0  0
    3.8048   -1.3004   -0.7554 C   0  0  0  0  0  0  0  0  0  0  0  0
    2.4567   -1.1624   -1.0602 C   0  0  0  0  0  0  0  0  0  0  0  0
   -0.0174   -1.9579   -1.7579 H   0  0  0  0  0  0  0  0  0  0  0  0
   -2.4384   -1.5919   -2.1025 H   0  0  0  0  0  0  0  0  0  0  0  0
   -3.5606    0.2052   -0.7875 H   0  0  0  0  0  0  0  0  0  0  0  0
    1.6196    0.3687    1.8684 H   0  0  0  0  0  0  0  0  0  0  0  0
    6.3619   -0.8566    1.3171 H   0  0  0  0  0  0  0  0  0  0  0  0
    7.0310   -2.0666   -0.9726 H   0  0  0  0  0  0  0  0  0  0  0  0
    5.7679   -2.8845   -3.0591 H   0  0  0  0  0  0  0  0  0  0  0  0
    4.4751   -1.7737   -3.5090 H   0  0  0  0  0  0  0  0  0  0  0  0
    1.8212   -5.7708   -1.5467 H   0  0  0  0  0  0  0  0  0  0  0  0
    3.0542   -6.3186   -2.7424 H   0  0  0  0  0  0  0  0  0  0  0  0
    5.4822   -4.7826   -0.8921 H   0  0  0  0  0  0  0  0  0  0  0  0
    4.2218   -4.2439    0.2807 H   0  0  0  0  0  0  0  0  0  0  0  0
    2.0832   -1.5070   -2.0200 H   0  0  0  0  0  0  0  0  0  0  0  0
  1  2  1  0
  2  3  1  0
  2  4  1  0
  2  5  1  0
  5  6  2  0
  5 10  1  0
  6  7  1  0
  7  8  2  0
  7 11  1  0
  8  9  1  0
  8 29  1  0
  9 10  2  0
  9 30  1  0
 10 31  1  0
 11 12  2  0
 11 28  1  0
 12 13  1  0
 12 32  1  0
 13 14  2  0
 14 15  1  0
 14 27  1  0
 15 16  2  0
 15 33  1  0
 16 17  1  0
 16 34  1  0
 17 18  1  0
 17 27  1  0
 18 19  1  0
 18 35  1  0
 18 36  1  0
 19 20  2  0
 19 21  1  0
 21 22  1  0
 21 26  1  0
 22 23  1  0
 22 37  1  0
 22 38  1  0
 23 24  1  0
 23 25  1  0
 23 26  1  0
 26 39  1  0
 26 40  1  0
 27 28  2  0
 28 41  1  0
M  END
>  <group_name>  (1) 
JNS

>  <molecule_index>  (1) 
02456

>  <conformer_index>  (1) 
07

>  <method>  (1) 
openff-1.3.0

>  <basis>  (1) 
smirnoff

>  <program>  (1) 
openmm

>  <initial_energy>  (1) 
142.10000737381202 kilocalorie / mole

>  <final_energy>  (1) 
129.76521495957064 kilocalorie / mole

$$$$
