JNS-01586-04
     RDKit          3D

 40 44  0  0  0  0  0  0  0  0999 V2000
   -0.4816   -0.4413    1.4653 F   0  0  0  0  0  0  0  0  0  0  0  0
    0.0502    0.0293    0.2970 C   0  0  0  0  0  0  0  0  0  0  0  0
   -0.4867   -0.6861   -0.7353 F   0  0  0  0  0  0  0  0  0  0  0  0
   -0.3402    1.3310    0.1546 F   0  0  0  0  0  0  0  0  0  0  0  0
    1.5792   -0.0632    0.2536 C   0  0  0  0  0  0  0  0  0  0  0  0
    2.2684   -0.6384    1.2790 N   0  0  0  0  0  0  0  0  0  0  0  0
    3.6123   -0.6753    1.1847 C   0  0  0  0  0  0  0  0  0  0  0  0
    4.5382   -1.2123    2.0399 C   0  0  0  0  0  0  0  0  0  0  0  0
    5.7768   -0.9488    1.4333 N   0  0  0  0  0  0  0  0  0  0  0  0
    5.6044   -0.3478    0.2203 N   0  0  0  0  0  0  0  0  0  0  0  0
    4.3164   -0.1756    0.1028 C   0  0  0  0  0  0  0  0  0  0  0  0
    3.6474    0.4129   -0.9568 C   0  0  0  0  0  0  0  0  0  0  0  0
    2.2572    0.4679   -0.8696 C   0  0  0  0  0  0  0  0  0  0  0  0
    7.0559   -1.0967    2.0097 C   0  0  0  0  0  0  0  0  0  0  0  0
    8.1820   -1.2705    1.1809 C   0  0  0  0  0  0  0  0  0  0  0  0
    9.4639   -1.4147    1.7247 C   0  0  0  0  0  0  0  0  0  0  0  0
    9.6456   -1.3757    3.1090 C   0  0  0  0  0  0  0  0  0  0  0  0
    8.5455   -1.1814    3.9474 C   0  0  0  0  0  0  0  0  0  0  0  0
    7.2641   -1.0353    3.4034 C   0  0  0  0  0  0  0  0  0  0  0  0
    4.2386   -1.9733    3.2672 C   0  0  0  0  0  0  0  0  0  0  0  0
    3.1896   -1.5774    4.1224 C   0  0  0  0  0  0  0  0  0  0  0  0
    2.9052   -2.2988    5.2915 C   0  0  0  0  0  0  0  0  0  0  0  0
    3.6740   -3.4220    5.5974 C   0  0  0  0  0  0  0  0  0  0  0  0
    3.6571   -4.3323    6.6406 N   0  0  0  0  0  0  0  0  0  0  0  0
    4.6221   -5.2869    6.4955 N   0  0  0  0  0  0  0  0  0  0  0  0
    5.2507   -5.0088    5.3769 C   0  0  0  0  0  0  0  0  0  0  0  0
    4.6863   -3.8254    4.7675 C   0  0  0  0  0  0  0  0  0  0  0  0
    4.9811   -3.1249    3.5947 C   0  0  0  0  0  0  0  0  0  0  0  0
    4.1889    0.8080   -1.8121 H   0  0  0  0  0  0  0  0  0  0  0  0
    1.6861    0.9206   -1.6740 H   0  0  0  0  0  0  0  0  0  0  0  0
    8.0627   -1.3030    0.1008 H   0  0  0  0  0  0  0  0  0  0  0  0
   10.3186   -1.5553    1.0684 H   0  0  0  0  0  0  0  0  0  0  0  0
   10.6407   -1.4868    3.5318 H   0  0  0  0  0  0  0  0  0  0  0  0
    8.6851   -1.1349    5.0243 H   0  0  0  0  0  0  0  0  0  0  0  0
    6.4380   -0.8516    4.0842 H   0  0  0  0  0  0  0  0  0  0  0  0
    2.5907   -0.7036    3.8793 H   0  0  0  0  0  0  0  0  0  0  0  0
    2.0944   -1.9859    5.9421 H   0  0  0  0  0  0  0  0  0  0  0  0
    2.9913   -4.2985    7.4131 H   0  0  0  0  0  0  0  0  0  0  0  0
    6.0773   -5.5837    4.9701 H   0  0  0  0  0  0  0  0  0  0  0  0
    5.7764   -3.4754    2.9431 H   0  0  0  0  0  0  0  0  0  0  0  0
  1  2  1  0
  2  3  1  0
  2  4  1  0
  2  5  1  0
  5  6  2  0
  5 13  1  0
  6  7  1  0
  7  8  2  0
  7 11  1  0
  8  9  1  0
  8 20  1  0
  9 10  1  0
  9 14  1  0
 10 11  2  0
 11 12  1  0
 12 13  2  0
 12 29  1  0
 13 30  1  0
 14 15  2  0
 14 19  1  0
 15 16  1  0
 15 31  1  0
 16 17  2  0
 16 32  1  0
 17 18  1  0
 17 33  1  0
 18 19  2  0
 18 34  1  0
 19 35  1  0
 20 21  2  0
 20 28  1  0
 21 22  1  0
 21 36  1  0
 22 23  2  0
 22 37  1  0
 23 24  1  0
 23 27  1  0
 24 25  1  0
 24 38  1  0
 25 26  2  0
 26 27  1  0
 26 39  1  0
 27 28  2  0
 28 40  1  0
M  END
>  <group_name>  (1) 
JNS

>  <molecule_index>  (1) 
01586

>  <conformer_index>  (1) 
04

>  <method>  (1) 
openff-1.3.0

>  <basis>  (1) 
smirnoff

>  <program>  (1) 
openmm

>  <initial_energy>  (1) 
186.2343994103922 kilocalorie / mole

>  <final_energy>  (1) 
173.3907213670267 kilocalorie / mole

$$$$
