JNS-02536-03
     RDKit          3D

 44 47  0  0  0  0  0  0  0  0999 V2000
   -6.3498   -4.7448    0.2968 C   0  0  0  0  0  0  0  0  0  0  0  0
   -5.2097   -3.7634    0.2145 C   0  0  0  0  0  0  0  0  0  0  0  0
   -4.1489   -3.8276    1.1240 C   0  0  0  0  0  0  0  0  0  0  0  0
   -3.0761   -2.9331    1.0320 C   0  0  0  0  0  0  0  0  0  0  0  0
   -3.0284   -1.9552    0.0206 C   0  0  0  0  0  0  0  0  0  0  0  0
   -4.0979   -1.9059   -0.8902 C   0  0  0  0  0  0  0  0  0  0  0  0
   -5.1717   -2.7993   -0.7982 C   0  0  0  0  0  0  0  0  0  0  0  0
   -1.9564   -1.0420   -0.0771 N   0  0  0  0  0  0  0  0  0  0  0  0
   -0.6653   -1.3016    0.4025 C   0  0  0  0  0  0  0  0  0  0  0  0
    0.0813   -2.8000    0.4007 S   0  0  0  0  0  0  0  0  0  0  0  0
   -0.0163   -0.1447    0.7883 N   0  0  0  0  0  0  0  0  0  0  0  0
   -0.8510    0.8928    0.4957 C   0  0  0  0  0  0  0  0  0  0  0  0
   -0.6656    2.0513    0.8652 O   0  0  0  0  0  0  0  0  0  0  0  0
   -2.1432    0.4202   -0.1797 C   0  0  0  0  0  0  0  0  0  0  0  0
   -3.4201    1.0933    0.3314 C   0  0  0  0  0  0  0  0  0  0  0  0
   -3.4318    1.9203   -0.9582 C   0  0  0  0  0  0  0  0  0  0  0  0
   -2.3252    1.0481   -1.5596 C   0  0  0  0  0  0  0  0  0  0  0  0
    1.3309   -0.0104    0.5274 C   0  0  0  0  0  0  0  0  0  0  0  0
    1.7043    0.6819   -0.5600 N   0  0  0  0  0  0  0  0  0  0  0  0
    3.0292    0.8260   -0.8480 C   0  0  0  0  0  0  0  0  0  0  0  0
    4.0162    0.2422   -0.0075 C   0  0  0  0  0  0  0  0  0  0  0  0
    3.6198   -0.4828    1.1156 C   0  0  0  0  0  0  0  0  0  0  0  0
    2.2623   -0.6046    1.3768 C   0  0  0  0  0  0  0  0  0  0  0  0
    5.4141    0.3667   -0.2700 C   0  0  0  0  0  0  0  0  0  0  0  0
    6.5601    0.4549   -0.4613 N   0  0  0  0  0  0  0  0  0  0  0  0
    3.4324    1.6286   -2.1005 C   0  0  0  0  0  0  0  0  0  0  0  0
    4.1931    2.7090   -1.7550 F   0  0  0  0  0  0  0  0  0  0  0  0
    4.1362    0.8431   -2.9683 F   0  0  0  0  0  0  0  0  0  0  0  0
    2.3481    2.1037   -2.7850 F   0  0  0  0  0  0  0  0  0  0  0  0
   -6.7633   -4.9375   -0.6978 H   0  0  0  0  0  0  0  0  0  0  0  0
   -6.0074   -5.6964    0.7147 H   0  0  0  0  0  0  0  0  0  0  0  0
   -7.1415   -4.3433    0.9363 H   0  0  0  0  0  0  0  0  0  0  0  0
   -4.1526   -4.5747    1.9126 H   0  0  0  0  0  0  0  0  0  0  0  0
   -2.2868   -3.0088    1.7726 H   0  0  0  0  0  0  0  0  0  0  0  0
   -4.1037   -1.1795   -1.6931 H   0  0  0  0  0  0  0  0  0  0  0  0
   -5.9785   -2.7416   -1.5233 H   0  0  0  0  0  0  0  0  0  0  0  0
   -3.3018    1.6731    1.2530 H   0  0  0  0  0  0  0  0  0  0  0  0
   -4.2871    0.4329    0.4204 H   0  0  0  0  0  0  0  0  0  0  0  0
   -3.1241    2.9607   -0.8049 H   0  0  0  0  0  0  0  0  0  0  0  0
   -4.3792    1.8895   -1.5061 H   0  0  0  0  0  0  0  0  0  0  0  0
   -2.6810    0.3580   -2.3290 H   0  0  0  0  0  0  0  0  0  0  0  0
   -1.4557    1.5998   -1.9348 H   0  0  0  0  0  0  0  0  0  0  0  0
    4.3543   -0.9458    1.7723 H   0  0  0  0  0  0  0  0  0  0  0  0
    1.9092   -1.1656    2.2356 H   0  0  0  0  0  0  0  0  0  0  0  0
  1  2  1  0
  1 30  1  0
  1 31  1  0
  1 32  1  0
  2  3  2  0
  2  7  1  0
  3  4  1  0
  3 33  1  0
  4  5  2  0
  4 34  1  0
  5  6  1  0
  5  8  1  0
  6  7  2  0
  6 35  1  0
  7 36  1  0
  8  9  1  0
  8 14  1  0
  9 10  2  0
  9 11  1  0
 11 12  1  0
 11 18  1  0
 12 13  2  0
 12 14  1  0
 14 15  1  0
 14 17  1  0
 15 16  1  0
 15 37  1  0
 15 38  1  0
 16 17  1  0
 16 39  1  0
 16 40  1  0
 17 41  1  0
 17 42  1  0
 18 19  2  0
 18 23  1  0
 19 20  1  0
 20 21  2  0
 20 26  1  0
 21 22  1  0
 21 24  1  0
 22 23  2  0
 22 43  1  0
 23 44  1  0
 24 25  3  0
 26 27  1  0
 26 28  1  0
 26 29  1  0
M  END
>  <group_name>  (1) 
JNS

>  <molecule_index>  (1) 
02536

>  <conformer_index>  (1) 
03

>  <method>  (1) 
openff-1.3.0

>  <basis>  (1) 
smirnoff

>  <program>  (1) 
openmm

>  <initial_energy>  (1) 
74.73132463474842 kilocalorie / mole

>  <final_energy>  (1) 
59.28993265877182 kilocalorie / mole

$$$$
