JNS-01948-07
     RDKit          3D

 33 34  0  0  0  0  0  0  0  0999 V2000
   -0.7214    0.7572   -0.0951 C   0  0  0  0  0  0  0  0  0  0  0  0
    0.2073    0.0059   -0.8987 O   0  0  0  0  0  0  0  0  0  0  0  0
    1.5434    0.2539   -0.6731 C   0  0  0  0  0  0  0  0  0  0  0  0
    1.9408    1.1500    0.2507 N   0  0  0  0  0  0  0  0  0  0  0  0
    3.2707    1.3619    0.4334 C   0  0  0  0  0  0  0  0  0  0  0  0
    4.2184    0.6529   -0.3281 C   0  0  0  0  0  0  0  0  0  0  0  0
    3.8217   -0.2823   -1.2751 C   0  0  0  0  0  0  0  0  0  0  0  0
    4.8293   -1.0359   -2.1089 C   0  0  0  0  0  0  0  0  0  0  0  0
    5.4734   -2.1729   -1.3025 C   0  0  2  0  0  0  0  0  0  0  0  0
    6.5159   -2.9639   -2.1149 C   0  0  0  0  0  0  0  0  0  0  0  0
    6.0845   -4.4226   -2.0357 C   0  0  0  0  0  0  0  0  0  0  0  0
    5.2780   -4.4278   -0.8214 N   0  0  0  0  0  0  0  0  0  0  0  0
    4.4624   -3.2191   -0.8333 C   0  0  0  0  0  0  0  0  0  0  0  0
    2.4556   -0.4629   -1.4418 C   0  0  0  0  0  0  0  0  0  0  0  0
    3.7757    2.3775    1.4696 C   0  0  0  0  0  0  0  0  0  0  0  0
    2.7634    3.0055    2.1399 F   0  0  0  0  0  0  0  0  0  0  0  0
    4.5302    3.3333    0.8501 F   0  0  0  0  0  0  0  0  0  0  0  0
    4.5654    1.7466    2.3885 F   0  0  0  0  0  0  0  0  0  0  0  0
   -0.5993    1.8318   -0.2667 H   0  0  0  0  0  0  0  0  0  0  0  0
   -0.5692    0.5474    0.9689 H   0  0  0  0  0  0  0  0  0  0  0  0
   -1.7465    0.4803   -0.3579 H   0  0  0  0  0  0  0  0  0  0  0  0
    5.2756    0.8409   -0.1653 H   0  0  0  0  0  0  0  0  0  0  0  0
    5.6069   -0.3431   -2.4466 H   0  0  0  0  0  0  0  0  0  0  0  0
    4.3458   -1.4414   -3.0037 H   0  0  0  0  0  0  0  0  0  0  0  0
    5.9742   -1.7577   -0.4213 H   0  0  0  0  0  0  0  0  0  0  0  0
    7.4989   -2.8459   -1.6477 H   0  0  0  0  0  0  0  0  0  0  0  0
    6.5843   -2.6373   -3.1572 H   0  0  0  0  0  0  0  0  0  0  0  0
    5.4702   -4.6819   -2.9048 H   0  0  0  0  0  0  0  0  0  0  0  0
    6.9385   -5.1054   -1.9735 H   0  0  0  0  0  0  0  0  0  0  0  0
    4.7271   -5.2797   -0.7113 H   0  0  0  0  0  0  0  0  0  0  0  0
    4.0548   -2.9837    0.1557 H   0  0  0  0  0  0  0  0  0  0  0  0
    3.6420   -3.3175   -1.5526 H   0  0  0  0  0  0  0  0  0  0  0  0
    2.0644   -1.1642   -2.1689 H   0  0  0  0  0  0  0  0  0  0  0  0
  1  2  1  0
  1 19  1  0
  1 20  1  0
  1 21  1  0
  2  3  1  0
  3  4  2  0
  3 14  1  0
  4  5  1  0
  5  6  2  0
  5 15  1  0
  6  7  1  0
  6 22  1  0
  7  8  1  0
  7 14  2  0
  8  9  1  0
  8 23  1  0
  8 24  1  0
  9 10  1  0
  9 13  1  0
  9 25  1  1
 10 11  1  0
 10 26  1  0
 10 27  1  0
 11 12  1  0
 11 28  1  0
 11 29  1  0
 12 13  1  0
 12 30  1  0
 13 31  1  0
 13 32  1  0
 14 33  1  0
 15 16  1  0
 15 17  1  0
 15 18  1  0
M  END
>  <group_name>  (1) 
JNS

>  <molecule_index>  (1) 
01948

>  <conformer_index>  (1) 
07

>  <method>  (1) 
openff-1.3.0

>  <basis>  (1) 
smirnoff

>  <program>  (1) 
openmm

>  <initial_energy>  (1) 
50.10688984536335 kilocalorie / mole

>  <final_energy>  (1) 
44.16967648628801 kilocalorie / mole

$$$$
