JNS-01565-00
     RDKit          3D

 41 44  0  0  0  0  0  0  0  0999 V2000
   -0.5948   -1.5092    0.7002 C   0  0  0  0  0  0  0  0  0  0  0  0
   -0.1443   -0.5065   -0.3689 C   0  0  0  0  0  0  0  0  0  0  0  0
   -0.5113   -0.9957   -1.7752 C   0  0  0  0  0  0  0  0  0  0  0  0
    1.3424   -0.1736   -0.2509 C   0  0  0  0  0  0  0  0  0  0  0  0
    2.4174   -1.0596   -0.3229 C   0  0  0  0  0  0  0  0  0  0  0  0
    2.4517   -2.9429   -0.7013 Br  0  0  0  0  0  0  0  0  0  0  0  0
    3.6152   -0.3063   -0.0172 C   0  0  0  0  0  0  0  0  0  0  0  0
    3.2478    1.0035    0.2252 C   0  0  0  0  0  0  0  0  0  0  0  0
    4.1224    1.9799    0.5393 N   0  0  0  0  0  0  0  0  0  0  0  0
    5.4394    1.6447    0.6277 C   0  0  0  0  0  0  0  0  0  0  0  0
    5.8641    0.3162    0.3927 C   0  0  0  0  0  0  0  0  0  0  0  0
    4.9483   -0.6819    0.0644 C   0  0  0  0  0  0  0  0  0  0  0  0
    6.4928    2.6987    0.9923 C   0  0  0  0  0  0  0  0  0  0  0  0
    7.1948    2.2902    2.0907 F   0  0  0  0  0  0  0  0  0  0  0  0
    7.3728    2.8484   -0.0412 F   0  0  0  0  0  0  0  0  0  0  0  0
    5.9474    3.9206    1.2721 F   0  0  0  0  0  0  0  0  0  0  0  0
    1.8642    1.1065    0.0475 N   0  0  0  0  0  0  0  0  0  0  0  0
    1.1619    2.3308    0.0435 C   0  0  0  0  0  0  0  0  0  0  0  0
    1.4114    3.2963    1.0291 C   0  0  0  0  0  0  0  0  0  0  0  0
    0.6959    4.4831    0.9527 C   0  0  0  0  0  0  0  0  0  0  0  0
   -0.2087    4.6651   -0.0719 C   0  0  0  0  0  0  0  0  0  0  0  0
   -0.8118    5.8809    0.0002 N   0  0  0  0  0  0  0  0  0  0  0  0
   -0.2020    6.5761    0.9985 C   0  0  0  0  0  0  0  0  0  0  0  0
   -0.3151    7.7897    1.0820 O   0  0  0  0  0  0  0  0  0  0  0  0
    0.7686    5.7200    1.8096 C   0  0  0  0  0  0  0  0  0  0  0  0
   -0.4596    3.8018   -1.0481 N   0  0  0  0  0  0  0  0  0  0  0  0
    0.2368    2.6475   -0.9801 C   0  0  0  0  0  0  0  0  0  0  0  0
   -0.3228   -1.1440    1.6955 H   0  0  0  0  0  0  0  0  0  0  0  0
   -1.6817   -1.6328    0.6649 H   0  0  0  0  0  0  0  0  0  0  0  0
   -0.1416   -2.4914    0.5532 H   0  0  0  0  0  0  0  0  0  0  0  0
   -0.7245    0.3983   -0.1758 H   0  0  0  0  0  0  0  0  0  0  0  0
   -0.1993   -0.2650   -2.5271 H   0  0  0  0  0  0  0  0  0  0  0  0
   -0.0315   -1.9503   -2.0035 H   0  0  0  0  0  0  0  0  0  0  0  0
   -1.5942   -1.1321   -1.8560 H   0  0  0  0  0  0  0  0  0  0  0  0
    6.9197    0.0724    0.4691 H   0  0  0  0  0  0  0  0  0  0  0  0
    5.2617   -1.7063   -0.1194 H   0  0  0  0  0  0  0  0  0  0  0  0
    2.1375    3.1317    1.8224 H   0  0  0  0  0  0  0  0  0  0  0  0
   -1.0709    6.3640   -0.8485 H   0  0  0  0  0  0  0  0  0  0  0  0
    1.7687    6.1615    1.8228 H   0  0  0  0  0  0  0  0  0  0  0  0
    0.3902    5.5477    2.8201 H   0  0  0  0  0  0  0  0  0  0  0  0
    0.0763    1.9303   -1.7783 H   0  0  0  0  0  0  0  0  0  0  0  0
  1  2  1  0
  1 28  1  0
  1 29  1  0
  1 30  1  0
  2  3  1  0
  2  4  1  0
  2 31  1  0
  3 32  1  0
  3 33  1  0
  3 34  1  0
  4  5  2  0
  4 17  1  0
  5  6  1  0
  5  7  1  0
  7  8  2  0
  7 12  1  0
  8  9  1  0
  8 17  1  0
  9 10  2  0
 10 11  1  0
 10 13  1  0
 11 12  2  0
 11 35  1  0
 12 36  1  0
 13 14  1  0
 13 15  1  0
 13 16  1  0
 17 18  1  0
 18 19  2  0
 18 27  1  0
 19 20  1  0
 19 37  1  0
 20 21  2  0
 20 25  1  0
 21 22  1  0
 21 26  1  0
 22 23  1  0
 22 38  1  0
 23 24  2  0
 23 25  1  0
 25 39  1  0
 25 40  1  0
 26 27  2  0
 27 41  1  0
M  END
>  <group_name>  (1) 
JNS

>  <molecule_index>  (1) 
01565

>  <conformer_index>  (1) 
00

>  <method>  (1) 
openff-1.3.0

>  <basis>  (1) 
smirnoff

>  <program>  (1) 
openmm

>  <initial_energy>  (1) 
57.9383209135989 kilocalorie / mole

>  <final_energy>  (1) 
46.66229317626678 kilocalorie / mole

$$$$
