JNS-02158-02
     RDKit          3D

 42 45  0  0  0  0  0  0  0  0999 V2000
   -1.0322    0.9629   -0.5362 C   0  0  0  0  0  0  0  0  0  0  0  0
    0.1654    1.6143   -1.2374 C   0  0  2  0  0  0  0  0  0  0  0  0
    0.9260    2.4494   -0.2782 N   0  0  0  0  0  0  0  0  0  0  0  0
    0.8832    3.9226   -0.3847 C   0  0  0  0  0  0  0  0  0  0  0  0
   -0.4061    4.4606   -1.0168 C   0  0  0  0  0  0  0  0  0  0  0  0
   -0.6475    3.7444   -2.3218 C   0  0  0  0  0  0  0  0  0  0  0  0
   -0.3580    2.4220   -2.4034 C   0  0  0  0  0  0  0  0  0  0  0  0
   -0.5416    1.9658   -3.6925 N   0  0  0  0  0  0  0  0  0  0  0  0
   -0.9494    2.9812   -4.4093 N   0  0  0  0  0  0  0  0  0  0  0  0
   -1.0353    4.0875   -3.6139 N   0  0  0  0  0  0  0  0  0  0  0  0
   -1.4917    5.3478   -4.0689 C   0  0  0  0  0  0  0  0  0  0  0  0
   -1.6321    6.3554   -3.1795 N   0  0  0  0  0  0  0  0  0  0  0  0
   -2.0713    7.5362   -3.6272 C   0  0  0  0  0  0  0  0  0  0  0  0
   -2.3806    7.7454   -4.9560 C   0  0  0  0  0  0  0  0  0  0  0  0
   -2.8261    8.9497   -5.4000 F   0  0  0  0  0  0  0  0  0  0  0  0
   -2.2175    6.6753   -5.8125 C   0  0  0  0  0  0  0  0  0  0  0  0
   -1.7804    5.4900   -5.3806 N   0  0  0  0  0  0  0  0  0  0  0  0
    1.7308    1.8788    0.7062 C   0  0  0  0  0  0  0  0  0  0  0  0
    2.1960    2.5902    1.5925 O   0  0  0  0  0  0  0  0  0  0  0  0
    2.0148    0.4418    0.7947 C   0  0  0  0  0  0  0  0  0  0  0  0
    1.6552   -0.2781    1.9372 C   0  0  0  0  0  0  0  0  0  0  0  0
    1.9419   -1.6387    2.0281 C   0  0  0  0  0  0  0  0  0  0  0  0
    2.5703   -2.3140    1.0506 N   0  0  0  0  0  0  0  0  0  0  0  0
    2.9702   -1.6314   -0.0624 C   0  0  0  0  0  0  0  0  0  0  0  0
    2.7124   -0.2450   -0.2082 C   0  0  0  0  0  0  0  0  0  0  0  0
    3.1607    0.4337   -1.2986 F   0  0  0  0  0  0  0  0  0  0  0  0
    3.7133   -2.3632   -1.1845 C   0  0  0  0  0  0  0  0  0  0  0  0
    4.9590   -1.8304   -1.3528 F   0  0  0  0  0  0  0  0  0  0  0  0
    3.8658   -3.6963   -0.9267 F   0  0  0  0  0  0  0  0  0  0  0  0
    3.0196   -2.2494   -2.3552 F   0  0  0  0  0  0  0  0  0  0  0  0
   -1.5961    0.3525   -1.2488 H   0  0  0  0  0  0  0  0  0  0  0  0
   -1.7007    1.7274   -0.1286 H   0  0  0  0  0  0  0  0  0  0  0  0
   -0.7055    0.3143    0.2803 H   0  0  0  0  0  0  0  0  0  0  0  0
    0.7985    0.8335   -1.6652 H   0  0  0  0  0  0  0  0  0  0  0  0
    0.9855    4.3879    0.6015 H   0  0  0  0  0  0  0  0  0  0  0  0
    1.7362    4.2493   -0.9890 H   0  0  0  0  0  0  0  0  0  0  0  0
   -1.2522    4.2883   -0.3449 H   0  0  0  0  0  0  0  0  0  0  0  0
   -0.3029    5.5383   -1.1636 H   0  0  0  0  0  0  0  0  0  0  0  0
   -2.1883    8.3558   -2.9238 H   0  0  0  0  0  0  0  0  0  0  0  0
   -2.4510    6.7994   -6.8662 H   0  0  0  0  0  0  0  0  0  0  0  0
    1.1554    0.2184    2.7642 H   0  0  0  0  0  0  0  0  0  0  0  0
    1.6455   -2.1774    2.9236 H   0  0  0  0  0  0  0  0  0  0  0  0
  1  2  1  0
  1 31  1  0
  1 32  1  0
  1 33  1  0
  2  3  1  0
  2  7  1  0
  2 34  1  6
  3  4  1  0
  3 18  1  0
  4  5  1  0
  4 35  1  0
  4 36  1  0
  5  6  1  0
  5 37  1  0
  5 38  1  0
  6  7  2  0
  6 10  1  0
  7  8  1  0
  8  9  2  0
  9 10  1  0
 10 11  1  0
 11 12  2  0
 11 17  1  0
 12 13  1  0
 13 14  2  0
 13 39  1  0
 14 15  1  0
 14 16  1  0
 16 17  2  0
 16 40  1  0
 18 19  2  0
 18 20  1  0
 20 21  2  0
 20 25  1  0
 21 22  1  0
 21 41  1  0
 22 23  2  0
 22 42  1  0
 23 24  1  0
 24 25  2  0
 24 27  1  0
 25 26  1  0
 27 28  1  0
 27 29  1  0
 27 30  1  0
M  END
>  <group_name>  (1) 
JNS

>  <molecule_index>  (1) 
02158

>  <conformer_index>  (1) 
02

>  <method>  (1) 
openff-1.3.0

>  <basis>  (1) 
smirnoff

>  <program>  (1) 
openmm

>  <initial_energy>  (1) 
90.29265934121621 kilocalorie / mole

>  <final_energy>  (1) 
78.57914028642074 kilocalorie / mole

$$$$
