JNS-01380-06
     RDKit          3D

 34 37  0  0  0  0  0  0  0  0999 V2000
   -0.3996    1.7994    0.2118 C   0  0  0  0  0  0  0  0  0  0  0  0
   -0.0359    0.4162    0.0559 O   0  0  0  0  0  0  0  0  0  0  0  0
    1.3209    0.1565    0.0395 C   0  0  0  0  0  0  0  0  0  0  0  0
    2.2360    1.0943    0.1568 N   0  0  0  0  0  0  0  0  0  0  0  0
    3.4390    0.4140    0.1388 C   0  0  0  0  0  0  0  0  0  0  0  0
    3.2534   -0.9500    0.0133 C   0  0  0  0  0  0  0  0  0  0  0  0
    4.2700   -1.8350   -0.0445 N   0  0  0  0  0  0  0  0  0  0  0  0
    5.5409   -1.3472    0.0374 C   0  0  0  0  0  0  0  0  0  0  0  0
    5.7753    0.0424    0.1743 C   0  0  0  0  0  0  0  0  0  0  0  0
    4.7126    0.9452    0.2252 C   0  0  0  0  0  0  0  0  0  0  0  0
    6.7482   -2.2923   -0.0089 C   0  0  0  0  0  0  0  0  0  0  0  0
    7.5175   -2.1121    1.1053 F   0  0  0  0  0  0  0  0  0  0  0  0
    7.5140   -2.0064   -1.1028 F   0  0  0  0  0  0  0  0  0  0  0  0
    6.3906   -3.6100   -0.0664 F   0  0  0  0  0  0  0  0  0  0  0  0
    1.8830   -1.1250   -0.0642 N   0  0  0  0  0  0  0  0  0  0  0  0
    1.1957   -2.3499   -0.2249 C   0  0  0  0  0  0  0  0  0  0  0  0
    1.7449   -3.5604    0.2551 C   0  0  0  0  0  0  0  0  0  0  0  0
    1.0525   -4.7624    0.0886 C   0  0  0  0  0  0  0  0  0  0  0  0
   -0.1748   -4.7946   -0.5454 C   0  0  0  0  0  0  0  0  0  0  0  0
   -0.7783   -6.0398   -0.6579 N   0  0  0  0  0  0  0  0  0  0  0  0
    0.0009   -6.9283   -0.1091 C   0  0  0  0  0  0  0  0  0  0  0  0
   -0.4535   -8.1989   -0.1390 O   0  0  0  0  0  0  0  0  0  0  0  0
    1.5232   -6.3651    0.5942 S   0  0  0  0  0  0  0  0  0  0  0  0
   -0.7426   -3.6244   -1.0343 C   0  0  0  0  0  0  0  0  0  0  0  0
   -0.0595   -2.4085   -0.8765 C   0  0  0  0  0  0  0  0  0  0  0  0
    0.0018    2.3993   -0.6116 H   0  0  0  0  0  0  0  0  0  0  0  0
   -1.4891    1.8982    0.2127 H   0  0  0  0  0  0  0  0  0  0  0  0
   -0.0163    2.1942    1.1586 H   0  0  0  0  0  0  0  0  0  0  0  0
    6.7959    0.4086    0.2380 H   0  0  0  0  0  0  0  0  0  0  0  0
    4.8570    2.0171    0.3254 H   0  0  0  0  0  0  0  0  0  0  0  0
    2.6983   -3.5874    0.7723 H   0  0  0  0  0  0  0  0  0  0  0  0
   -1.3048   -8.1352   -0.5977 H   0  0  0  0  0  0  0  0  0  0  0  0
   -1.7035   -3.6703   -1.5363 H   0  0  0  0  0  0  0  0  0  0  0  0
   -0.5195   -1.5197   -1.2938 H   0  0  0  0  0  0  0  0  0  0  0  0
  1  2  1  0
  1 26  1  0
  1 27  1  0
  1 28  1  0
  2  3  1  0
  3  4  2  0
  3 15  1  0
  4  5  1  0
  5  6  2  0
  5 10  1  0
  6  7  1  0
  6 15  1  0
  7  8  2  0
  8  9  1  0
  8 11  1  0
  9 10  2  0
  9 29  1  0
 10 30  1  0
 11 12  1  0
 11 13  1  0
 11 14  1  0
 15 16  1  0
 16 17  2  0
 16 25  1  0
 17 18  1  0
 17 31  1  0
 18 19  2  0
 18 23  1  0
 19 20  1  0
 19 24  1  0
 20 21  2  0
 21 22  1  0
 21 23  1  0
 22 32  1  0
 24 25  2  0
 24 33  1  0
 25 34  1  0
M  END
>  <group_name>  (1) 
JNS

>  <molecule_index>  (1) 
01380

>  <conformer_index>  (1) 
06

>  <method>  (1) 
openff-1.3.0

>  <basis>  (1) 
smirnoff

>  <program>  (1) 
openmm

>  <initial_energy>  (1) 
80.24680461747188 kilocalorie / mole

>  <final_energy>  (1) 
68.93472339733923 kilocalorie / mole

$$$$
