JNS-01358-08
     RDKit          3D

 41 45  0  0  0  0  0  0  0  0999 V2000
   -2.3376   -0.9174   -3.4851 F   0  0  0  0  0  0  0  0  0  0  0  0
   -1.9527   -0.6045   -2.2251 C   0  0  0  0  0  0  0  0  0  0  0  0
   -2.8856   -0.5494   -1.2584 N   0  0  0  0  0  0  0  0  0  0  0  0
   -2.4717   -0.2482   -0.0174 C   0  0  0  0  0  0  0  0  0  0  0  0
   -1.1387    0.0221    0.2998 C   0  0  0  0  0  0  0  0  0  0  0  0
   -0.1571   -0.0057   -0.6959 C   0  0  0  0  0  0  0  0  0  0  0  0
   -0.6034   -0.3449   -1.9769 C   0  0  0  0  0  0  0  0  0  0  0  0
    1.2730    0.2570   -0.4203 C   0  0  0  0  0  0  0  0  0  0  0  0
    2.2095   -0.3290   -1.1339 N   0  0  0  0  0  0  0  0  0  0  0  0
    3.4008    0.0338   -0.5293 C   0  0  0  0  0  0  0  0  0  0  0  0
    3.1869    0.8589    0.5570 C   0  0  0  0  0  0  0  0  0  0  0  0
    4.1756    1.3586    1.3252 N   0  0  0  0  0  0  0  0  0  0  0  0
    5.4556    1.0160    1.0045 C   0  0  0  0  0  0  0  0  0  0  0  0
    5.7237    0.1690   -0.0984 C   0  0  0  0  0  0  0  0  0  0  0  0
    4.6856   -0.3346   -0.8837 C   0  0  0  0  0  0  0  0  0  0  0  0
    6.6361    1.5354    1.8351 C   0  0  0  0  0  0  0  0  0  0  0  0
    6.2418    2.2876    2.9061 F   0  0  0  0  0  0  0  0  0  0  0  0
    7.3676    0.4823    2.3054 F   0  0  0  0  0  0  0  0  0  0  0  0
    7.4502    2.3004    1.0500 F   0  0  0  0  0  0  0  0  0  0  0  0
    1.8184    1.0486    0.6069 N   0  0  0  0  0  0  0  0  0  0  0  0
    1.1678    2.0428    1.3659 C   0  0  0  0  0  0  0  0  0  0  0  0
    1.5772    2.3172    2.6869 C   0  0  0  0  0  0  0  0  0  0  0  0
    0.9268    3.3082    3.4266 C   0  0  0  0  0  0  0  0  0  0  0  0
   -0.1123    4.0353    2.8745 C   0  0  0  0  0  0  0  0  0  0  0  0
   -0.5802    4.9515    3.7937 N   0  0  0  0  0  0  0  0  0  0  0  0
    0.2178    4.9019    4.9004 C   0  0  0  0  0  0  0  0  0  0  0  0
    0.1861    5.7811    5.7500 O   0  0  0  0  0  0  0  0  0  0  0  0
    1.2359    3.7704    4.8271 C   0  0  0  0  0  0  0  0  0  0  0  0
   -0.5249    3.8054    1.5666 C   0  0  0  0  0  0  0  0  0  0  0  0
    0.1183    2.8122    0.8134 C   0  0  0  0  0  0  0  0  0  0  0  0
   -3.2108   -0.2156    0.7780 H   0  0  0  0  0  0  0  0  0  0  0  0
   -0.8877    0.2401    1.3329 H   0  0  0  0  0  0  0  0  0  0  0  0
    0.0935   -0.4140   -2.8060 H   0  0  0  0  0  0  0  0  0  0  0  0
    6.7513   -0.0910   -0.3351 H   0  0  0  0  0  0  0  0  0  0  0  0
    4.8573   -0.9863   -1.7360 H   0  0  0  0  0  0  0  0  0  0  0  0
    2.3941    1.7642    3.1425 H   0  0  0  0  0  0  0  0  0  0  0  0
   -0.9754    5.8471    3.5291 H   0  0  0  0  0  0  0  0  0  0  0  0
    1.0206    3.0008    5.5715 H   0  0  0  0  0  0  0  0  0  0  0  0
    2.2555    4.1516    4.9224 H   0  0  0  0  0  0  0  0  0  0  0  0
   -1.3302    4.3918    1.1344 H   0  0  0  0  0  0  0  0  0  0  0  0
   -0.1957    2.6613   -0.2155 H   0  0  0  0  0  0  0  0  0  0  0  0
  1  2  1  0
  2  3  2  0
  2  7  1  0
  3  4  1  0
  4  5  2  0
  4 31  1  0
  5  6  1  0
  5 32  1  0
  6  7  2  0
  6  8  1  0
  7 33  1  0
  8  9  2  0
  8 20  1  0
  9 10  1  0
 10 11  2  0
 10 15  1  0
 11 12  1  0
 11 20  1  0
 12 13  2  0
 13 14  1  0
 13 16  1  0
 14 15  2  0
 14 34  1  0
 15 35  1  0
 16 17  1  0
 16 18  1  0
 16 19  1  0
 20 21  1  0
 21 22  2  0
 21 30  1  0
 22 23  1  0
 22 36  1  0
 23 24  2  0
 23 28  1  0
 24 25  1  0
 24 29  1  0
 25 26  1  0
 25 37  1  0
 26 27  2  0
 26 28  1  0
 28 38  1  0
 28 39  1  0
 29 30  2  0
 29 40  1  0
 30 41  1  0
M  END
>  <group_name>  (1) 
JNS

>  <molecule_index>  (1) 
01358

>  <conformer_index>  (1) 
08

>  <method>  (1) 
openff-1.3.0

>  <basis>  (1) 
smirnoff

>  <program>  (1) 
openmm

>  <initial_energy>  (1) 
98.09024337297903 kilocalorie / mole

>  <final_energy>  (1) 
85.28598485868707 kilocalorie / mole

$$$$
