JNS-02239-02
     RDKit          3D

 53 57  0  0  0  0  0  0  0  0999 V2000
   -2.7178    1.9596   -1.4907 C   0  0  0  0  0  0  0  0  0  0  0  0
   -1.8357    1.2237   -0.5868 N   0  0  0  0  0  0  0  0  0  0  0  0
   -0.4614    1.1252   -0.7298 C   0  0  0  0  0  0  0  0  0  0  0  0
   -0.0252    0.3498    0.3129 C   0  0  0  0  0  0  0  0  0  0  0  0
   -1.2248   -0.0077    1.0394 C   0  0  0  0  0  0  0  0  0  0  0  0
   -2.2830    0.5329    0.4884 N   0  0  0  0  0  0  0  0  0  0  0  0
    1.3050   -0.1314    0.6932 C   0  0  0  0  0  0  0  0  0  0  0  0
    2.4932    0.5399    0.3897 C   0  0  0  0  0  0  0  0  0  0  0  0
    2.5284    1.8742   -0.3532 C   0  0  0  0  0  0  0  0  0  0  0  0
    3.8757    2.6202   -0.2948 C   0  0  1  0  0  0  0  0  0  0  0  0
    4.1219    3.4005    1.0142 C   0  0  0  0  0  0  0  0  0  0  0  0
    4.3884    2.5049    2.2346 C   0  0  0  0  0  0  0  0  0  0  0  0
    5.4147    1.4093    1.8965 C   0  0  0  0  0  0  0  0  0  0  0  0
    5.0174    0.6489    0.6201 C   0  0  2  0  0  0  0  0  0  0  0  0
    4.9376    1.6325   -0.4701 N   0  0  0  0  0  0  0  0  0  0  0  0
    5.5696    1.4057   -1.6882 C   0  0  0  0  0  0  0  0  0  0  0  0
    6.1718    0.3496   -1.8623 O   0  0  0  0  0  0  0  0  0  0  0  0
    5.4967    2.3261   -2.8316 C   0  0  0  0  0  0  0  0  0  0  0  0
    5.1477    1.8432   -4.0962 C   0  0  0  0  0  0  0  0  0  0  0  0
    5.0870    2.7070   -5.1872 C   0  0  0  0  0  0  0  0  0  0  0  0
    5.3566    4.0201   -5.0879 N   0  0  0  0  0  0  0  0  0  0  0  0
    5.7379    4.5180   -3.8752 C   0  0  0  0  0  0  0  0  0  0  0  0
    5.8282    3.6854   -2.7315 C   0  0  0  0  0  0  0  0  0  0  0  0
    6.2568    4.1891   -1.5432 F   0  0  0  0  0  0  0  0  0  0  0  0
    6.0726    6.0059   -3.7286 C   0  0  0  0  0  0  0  0  0  0  0  0
    7.3703    6.1639   -3.3354 F   0  0  0  0  0  0  0  0  0  0  0  0
    5.9065    6.6964   -4.8957 F   0  0  0  0  0  0  0  0  0  0  0  0
    5.2542    6.5781   -2.7964 F   0  0  0  0  0  0  0  0  0  0  0  0
    3.6818   -0.0440    0.8360 C   0  0  0  0  0  0  0  0  0  0  0  0
    3.6802   -1.2063    1.4877 N   0  0  0  0  0  0  0  0  0  0  0  0
    2.5039   -1.7871    1.7217 C   0  0  0  0  0  0  0  0  0  0  0  0
    2.5046   -3.0728    2.4867 C   0  0  0  0  0  0  0  0  0  0  0  0
    1.3241   -1.2742    1.3755 N   0  0  0  0  0  0  0  0  0  0  0  0
   -3.4429    1.2742   -1.9383 H   0  0  0  0  0  0  0  0  0  0  0  0
   -2.1391    2.4313   -2.2894 H   0  0  0  0  0  0  0  0  0  0  0  0
   -3.2512    2.7363   -0.9356 H   0  0  0  0  0  0  0  0  0  0  0  0
    0.1254    1.5596   -1.5310 H   0  0  0  0  0  0  0  0  0  0  0  0
   -1.2488   -0.6340    1.9269 H   0  0  0  0  0  0  0  0  0  0  0  0
    1.7441    2.5385    0.0233 H   0  0  0  0  0  0  0  0  0  0  0  0
    2.3215    1.6676   -1.4073 H   0  0  0  0  0  0  0  0  0  0  0  0
    3.8651    3.3577   -1.1007 H   0  0  0  0  0  0  0  0  0  0  0  0
    3.2736    4.0607    1.2199 H   0  0  0  0  0  0  0  0  0  0  0  0
    4.9972    4.0414    0.8686 H   0  0  0  0  0  0  0  0  0  0  0  0
    3.4510    2.0477    2.5670 H   0  0  0  0  0  0  0  0  0  0  0  0
    4.7592    3.1138    3.0652 H   0  0  0  0  0  0  0  0  0  0  0  0
    5.4972    0.7102    2.7352 H   0  0  0  0  0  0  0  0  0  0  0  0
    6.3993    1.8652    1.7492 H   0  0  0  0  0  0  0  0  0  0  0  0
    5.7684   -0.1222    0.4180 H   0  0  0  0  0  0  0  0  0  0  0  0
    4.9267    0.7885   -4.2374 H   0  0  0  0  0  0  0  0  0  0  0  0
    4.8073    2.3059   -6.1572 H   0  0  0  0  0  0  0  0  0  0  0  0
    1.5876   -3.1627    3.0752 H   0  0  0  0  0  0  0  0  0  0  0  0
    2.5650   -3.9112    1.7888 H   0  0  0  0  0  0  0  0  0  0  0  0
    3.3621   -3.1088    3.1639 H   0  0  0  0  0  0  0  0  0  0  0  0
  1  2  1  0
  1 34  1  0
  1 35  1  0
  1 36  1  0
  2  3  1  0
  2  6  1  0
  3  4  2  0
  3 37  1  0
  4  5  1  0
  4  7  1  0
  5  6  2  0
  5 38  1  0
  7  8  1  0
  7 33  2  0
  8  9  1  0
  8 29  2  0
  9 10  1  0
  9 39  1  0
  9 40  1  0
 10 11  1  0
 10 15  1  0
 10 41  1  6
 11 12  1  0
 11 42  1  0
 11 43  1  0
 12 13  1  0
 12 44  1  0
 12 45  1  0
 13 14  1  0
 13 46  1  0
 13 47  1  0
 14 15  1  0
 14 29  1  0
 14 48  1  6
 15 16  1  0
 16 17  2  0
 16 18  1  0
 18 19  2  0
 18 23  1  0
 19 20  1  0
 19 49  1  0
 20 21  2  0
 20 50  1  0
 21 22  1  0
 22 23  2  0
 22 25  1  0
 23 24  1  0
 25 26  1  0
 25 27  1  0
 25 28  1  0
 29 30  1  0
 30 31  2  0
 31 32  1  0
 31 33  1  0
 32 51  1  0
 32 52  1  0
 32 53  1  0
M  END
>  <group_name>  (1) 
JNS

>  <molecule_index>  (1) 
02239

>  <conformer_index>  (1) 
02

>  <method>  (1) 
openff-1.3.0

>  <basis>  (1) 
smirnoff

>  <program>  (1) 
openmm

>  <initial_energy>  (1) 
18.03036446745151 kilocalorie / mole

>  <final_energy>  (1) 
8.134553261977231 kilocalorie / mole

$$$$
