JNS-01861-06
     RDKit          3D

 34 37  0  0  0  0  0  0  0  0999 V2000
   -2.5566   -0.5086    2.4122 C   0  0  0  0  0  0  0  0  0  0  0  0
   -1.9968   -0.2305    1.0397 C   0  0  0  0  0  0  0  0  0  0  0  0
   -0.6372    0.0864    0.8701 C   0  0  0  0  0  0  0  0  0  0  0  0
   -0.0862    0.3586   -0.4036 C   0  0  0  0  0  0  0  0  0  0  0  0
   -0.9482    0.2989   -1.5192 C   0  0  0  0  0  0  0  0  0  0  0  0
   -2.2968   -0.0163   -1.3477 C   0  0  0  0  0  0  0  0  0  0  0  0
   -2.8186   -0.2773   -0.0924 C   0  0  0  0  0  0  0  0  0  0  0  0
   -4.0995   -0.5494   -0.1420 N   0  0  0  0  0  0  0  0  0  0  0  0
   -4.4268   -0.4629   -1.4565 N   0  0  0  0  0  0  0  0  0  0  0  0
   -3.3248   -0.1321   -2.2314 C   0  0  0  0  0  0  0  0  0  0  0  0
    1.2816    0.6705   -0.5772 N   0  0  0  0  0  0  0  0  0  0  0  0
    1.9799    0.4978   -1.7834 C   0  0  0  0  0  0  0  0  0  0  0  0
    3.2866    0.8943   -1.6134 C   0  0  0  0  0  0  0  0  0  0  0  0
    3.4071    1.3384   -0.2461 C   0  0  0  0  0  0  0  0  0  0  0  0
    2.1719    1.1946    0.3790 C   0  0  0  0  0  0  0  0  0  0  0  0
    1.9662    1.5543    1.6624 N   0  0  0  0  0  0  0  0  0  0  0  0
    3.0168    2.0584    2.3669 C   0  0  0  0  0  0  0  0  0  0  0  0
    4.2882    2.2067    1.7656 C   0  0  0  0  0  0  0  0  0  0  0  0
    4.4982    1.8463    0.4376 C   0  0  0  0  0  0  0  0  0  0  0  0
    2.8495    2.4730    3.8350 C   0  0  0  0  0  0  0  0  0  0  0  0
    3.7482    1.7982    4.6123 F   0  0  0  0  0  0  0  0  0  0  0  0
    1.5984    2.2215    4.3248 F   0  0  0  0  0  0  0  0  0  0  0  0
    3.0994    3.8094    3.9689 F   0  0  0  0  0  0  0  0  0  0  0  0
   -3.3876    0.1717    2.6202 H   0  0  0  0  0  0  0  0  0  0  0  0
   -2.9217   -1.5384    2.4630 H   0  0  0  0  0  0  0  0  0  0  0  0
   -1.7935   -0.3689    3.1835 H   0  0  0  0  0  0  0  0  0  0  0  0
   -0.0125    0.0985    1.7554 H   0  0  0  0  0  0  0  0  0  0  0  0
   -0.5927    0.5149   -2.5192 H   0  0  0  0  0  0  0  0  0  0  0  0
   -5.3674   -0.6181   -1.8157 H   0  0  0  0  0  0  0  0  0  0  0  0
   -3.2858    0.0076   -3.3070 H   0  0  0  0  0  0  0  0  0  0  0  0
    1.5720    0.0920   -2.7038 H   0  0  0  0  0  0  0  0  0  0  0  0
    4.0755    0.8722   -2.3605 H   0  0  0  0  0  0  0  0  0  0  0  0
    5.1095    2.6107    2.3496 H   0  0  0  0  0  0  0  0  0  0  0  0
    5.4663    1.9594   -0.0427 H   0  0  0  0  0  0  0  0  0  0  0  0
  1  2  1  0
  1 24  1  0
  1 25  1  0
  1 26  1  0
  2  3  2  0
  2  7  1  0
  3  4  1  0
  3 27  1  0
  4  5  2  0
  4 11  1  0
  5  6  1  0
  5 28  1  0
  6  7  1  0
  6 10  2  0
  7  8  2  0
  8  9  1  0
  9 10  1  0
  9 29  1  0
 10 30  1  0
 11 12  1  0
 11 15  1  0
 12 13  2  0
 12 31  1  0
 13 14  1  0
 13 32  1  0
 14 15  2  0
 14 19  1  0
 15 16  1  0
 16 17  2  0
 17 18  1  0
 17 20  1  0
 18 19  2  0
 18 33  1  0
 19 34  1  0
 20 21  1  0
 20 22  1  0
 20 23  1  0
M  END
>  <group_name>  (1) 
JNS

>  <molecule_index>  (1) 
01861

>  <conformer_index>  (1) 
06

>  <method>  (1) 
openff-1.3.0

>  <basis>  (1) 
smirnoff

>  <program>  (1) 
openmm

>  <initial_energy>  (1) 
150.02946217411176 kilocalorie / mole

>  <final_energy>  (1) 
136.15440143670938 kilocalorie / mole

$$$$
