JNS-01564-03
     RDKit          3D

 45 49  0  0  0  0  0  0  0  0999 V2000
   -2.6601   -0.3096   -2.8519 C   0  0  0  0  0  0  0  0  0  0  0  0
   -2.0077   -0.1310   -1.5036 C   0  0  0  0  0  0  0  0  0  0  0  0
   -2.7748   -0.0323   -0.3395 C   0  0  0  0  0  0  0  0  0  0  0  0
   -4.1464   -0.0941   -0.1822 N   0  0  0  0  0  0  0  0  0  0  0  0
   -4.4360   -0.0923    1.1509 C   0  0  0  0  0  0  0  0  0  0  0  0
   -5.5447   -0.3966    1.5690 O   0  0  0  0  0  0  0  0  0  0  0  0
   -3.1974    0.1379    2.0077 C   0  0  0  0  0  0  0  0  0  0  0  0
   -2.1760    0.1254    0.8999 C   0  0  0  0  0  0  0  0  0  0  0  0
   -0.7875    0.2039    1.0190 C   0  0  0  0  0  0  0  0  0  0  0  0
    0.0144    0.1385   -0.1350 C   0  0  0  0  0  0  0  0  0  0  0  0
   -0.6096   -0.0397   -1.3869 C   0  0  0  0  0  0  0  0  0  0  0  0
    1.4828    0.2242   -0.0423 C   0  0  0  0  0  0  0  0  0  0  0  0
    2.3947   -0.4917   -0.7709 C   0  0  0  0  0  0  0  0  0  0  0  0
    2.1967   -1.4163   -1.7303 N   0  0  0  0  0  0  0  0  0  0  0  0
    3.2996   -1.9933   -2.2855 C   0  0  0  0  0  0  0  0  0  0  0  0
    4.6008   -1.6296   -1.8631 C   0  0  0  0  0  0  0  0  0  0  0  0
    4.7880   -0.6721   -0.8669 C   0  0  0  0  0  0  0  0  0  0  0  0
    3.6477   -0.1050   -0.3244 C   0  0  0  0  0  0  0  0  0  0  0  0
    3.5894    0.8005    0.6140 N   0  0  0  0  0  0  0  0  0  0  0  0
    2.2582    1.0341    0.7931 N   0  0  0  0  0  0  0  0  0  0  0  0
    1.7282    2.1274    1.6311 C   0  0  0  0  0  0  0  0  0  0  0  0
    2.6223    3.3640    1.7858 C   0  0  0  0  0  0  0  0  0  0  0  0
    2.8979    2.9910    3.2370 C   0  0  0  0  0  0  0  0  0  0  0  0
    1.8497    1.8893    3.1377 C   0  0  0  0  0  0  0  0  0  0  0  0
    3.1557   -3.0456   -3.3904 C   0  0  0  0  0  0  0  0  0  0  0  0
    3.8623   -2.6594   -4.4943 F   0  0  0  0  0  0  0  0  0  0  0  0
    1.8585   -3.2453   -3.7733 F   0  0  0  0  0  0  0  0  0  0  0  0
    3.6633   -4.2392   -2.9622 F   0  0  0  0  0  0  0  0  0  0  0  0
   -3.0869   -1.3141   -2.9297 H   0  0  0  0  0  0  0  0  0  0  0  0
   -3.4577    0.4273   -2.9869 H   0  0  0  0  0  0  0  0  0  0  0  0
   -1.9321   -0.1789   -3.6583 H   0  0  0  0  0  0  0  0  0  0  0  0
   -4.7447   -0.6245   -0.8052 H   0  0  0  0  0  0  0  0  0  0  0  0
   -3.0521   -0.6816    2.7155 H   0  0  0  0  0  0  0  0  0  0  0  0
   -3.2456    1.1056    2.5116 H   0  0  0  0  0  0  0  0  0  0  0  0
   -0.3400    0.2899    2.0038 H   0  0  0  0  0  0  0  0  0  0  0  0
    0.0034   -0.1084   -2.2817 H   0  0  0  0  0  0  0  0  0  0  0  0
    5.4633   -2.1036   -2.3208 H   0  0  0  0  0  0  0  0  0  0  0  0
    5.7770   -0.3789   -0.5256 H   0  0  0  0  0  0  0  0  0  0  0  0
    0.7174    2.4081    1.3210 H   0  0  0  0  0  0  0  0  0  0  0  0
    3.5109    3.3883    1.1463 H   0  0  0  0  0  0  0  0  0  0  0  0
    2.0734    4.3056    1.6817 H   0  0  0  0  0  0  0  0  0  0  0  0
    3.9125    2.6126    3.4030 H   0  0  0  0  0  0  0  0  0  0  0  0
    2.6637    3.7784    3.9609 H   0  0  0  0  0  0  0  0  0  0  0  0
    0.9307    2.1158    3.6880 H   0  0  0  0  0  0  0  0  0  0  0  0
    2.2173    0.8955    3.4160 H   0  0  0  0  0  0  0  0  0  0  0  0
  1  2  1  0
  1 29  1  0
  1 30  1  0
  1 31  1  0
  2  3  2  0
  2 11  1  0
  3  4  1  0
  3  8  1  0
  4  5  1  0
  4 32  1  0
  5  6  2  0
  5  7  1  0
  7  8  1  0
  7 33  1  0
  7 34  1  0
  8  9  2  0
  9 10  1  0
  9 35  1  0
 10 11  2  0
 10 12  1  0
 11 36  1  0
 12 13  2  0
 12 20  1  0
 13 14  1  0
 13 18  1  0
 14 15  2  0
 15 16  1  0
 15 25  1  0
 16 17  2  0
 16 37  1  0
 17 18  1  0
 17 38  1  0
 18 19  2  0
 19 20  1  0
 20 21  1  0
 21 22  1  0
 21 24  1  0
 21 39  1  0
 22 23  1  0
 22 40  1  0
 22 41  1  0
 23 24  1  0
 23 42  1  0
 23 43  1  0
 24 44  1  0
 24 45  1  0
 25 26  1  0
 25 27  1  0
 25 28  1  0
M  END
>  <group_name>  (1) 
JNS

>  <molecule_index>  (1) 
01564

>  <conformer_index>  (1) 
03

>  <method>  (1) 
openff-1.3.0

>  <basis>  (1) 
smirnoff

>  <program>  (1) 
openmm

>  <initial_energy>  (1) 
139.97882368488405 kilocalorie / mole

>  <final_energy>  (1) 
125.34609927694166 kilocalorie / mole

$$$$
