JNS-01948-03
     RDKit          3D

 33 34  0  0  0  0  0  0  0  0999 V2000
   -0.4107    1.5154    0.2482 C   0  0  0  0  0  0  0  0  0  0  0  0
    0.2026    0.2700   -0.1334 O   0  0  0  0  0  0  0  0  0  0  0  0
    1.5566    0.1648    0.0969 C   0  0  0  0  0  0  0  0  0  0  0  0
    2.2513    1.1771    0.6511 N   0  0  0  0  0  0  0  0  0  0  0  0
    3.5843    1.0224    0.8637 C   0  0  0  0  0  0  0  0  0  0  0  0
    4.2313   -0.1753    0.5057 C   0  0  0  0  0  0  0  0  0  0  0  0
    3.5287   -1.2219   -0.0792 C   0  0  0  0  0  0  0  0  0  0  0  0
    4.2005   -2.5218   -0.4523 C   0  0  0  0  0  0  0  0  0  0  0  0
    4.3918   -2.6388   -1.9740 C   0  0  2  0  0  0  0  0  0  0  0  0
    4.9932   -4.0007   -2.3616 C   0  0  0  0  0  0  0  0  0  0  0  0
    6.0514   -3.6723   -3.3996 C   0  0  0  0  0  0  0  0  0  0  0  0
    6.5492   -2.4020   -2.8864 N   0  0  0  0  0  0  0  0  0  0  0  0
    5.3738   -1.6049   -2.5413 C   0  0  0  0  0  0  0  0  0  0  0  0
    2.1670   -1.0314   -0.2679 C   0  0  0  0  0  0  0  0  0  0  0  0
    4.4203    2.1441    1.4984 C   0  0  0  0  0  0  0  0  0  0  0  0
    4.9983    1.6930    2.6512 F   0  0  0  0  0  0  0  0  0  0  0  0
    5.4190    2.5150    0.6432 F   0  0  0  0  0  0  0  0  0  0  0  0
    3.6841    3.2557    1.7993 F   0  0  0  0  0  0  0  0  0  0  0  0
    0.0374    2.3506   -0.3002 H   0  0  0  0  0  0  0  0  0  0  0  0
   -1.4800    1.4867    0.0192 H   0  0  0  0  0  0  0  0  0  0  0  0
   -0.2924    1.6909    1.3226 H   0  0  0  0  0  0  0  0  0  0  0  0
    5.2969   -0.2725    0.6907 H   0  0  0  0  0  0  0  0  0  0  0  0
    3.5837   -3.3543   -0.0982 H   0  0  0  0  0  0  0  0  0  0  0  0
    5.1694   -2.5995    0.0519 H   0  0  0  0  0  0  0  0  0  0  0  0
    3.4238   -2.5126   -2.4699 H   0  0  0  0  0  0  0  0  0  0  0  0
    4.2401   -4.6868   -2.7609 H   0  0  0  0  0  0  0  0  0  0  0  0
    5.4727   -4.4712   -1.4968 H   0  0  0  0  0  0  0  0  0  0  0  0
    6.8320   -4.4381   -3.4584 H   0  0  0  0  0  0  0  0  0  0  0  0
    5.5948   -3.5382   -4.3866 H   0  0  0  0  0  0  0  0  0  0  0  0
    7.0947   -2.5784   -2.0430 H   0  0  0  0  0  0  0  0  0  0  0  0
    4.9490   -1.1519   -3.4439 H   0  0  0  0  0  0  0  0  0  0  0  0
    5.6201   -0.8075   -1.8332 H   0  0  0  0  0  0  0  0  0  0  0  0
    1.5475   -1.8055   -0.7047 H   0  0  0  0  0  0  0  0  0  0  0  0
  1  2  1  0
  1 19  1  0
  1 20  1  0
  1 21  1  0
  2  3  1  0
  3  4  2  0
  3 14  1  0
  4  5  1  0
  5  6  2  0
  5 15  1  0
  6  7  1  0
  6 22  1  0
  7  8  1  0
  7 14  2  0
  8  9  1  0
  8 23  1  0
  8 24  1  0
  9 10  1  0
  9 13  1  0
  9 25  1  6
 10 11  1  0
 10 26  1  0
 10 27  1  0
 11 12  1  0
 11 28  1  0
 11 29  1  0
 12 13  1  0
 12 30  1  0
 13 31  1  0
 13 32  1  0
 14 33  1  0
 15 16  1  0
 15 17  1  0
 15 18  1  0
M  END
>  <group_name>  (1) 
JNS

>  <molecule_index>  (1) 
01948

>  <conformer_index>  (1) 
03

>  <method>  (1) 
openff-1.3.0

>  <basis>  (1) 
smirnoff

>  <program>  (1) 
openmm

>  <initial_energy>  (1) 
53.814668857702216 kilocalorie / mole

>  <final_energy>  (1) 
44.51270619239952 kilocalorie / mole

$$$$
