JNS-00129-02
     RDKit          3D

 31 33  0  0  0  0  0  0  0  0999 V2000
    0.4170   -1.2049    1.9418 N   0  0  0  0  0  0  0  0  0  0  0  0
   -0.4771   -0.7586    0.9579 C   0  0  0  0  0  0  0  0  0  0  0  0
   -0.0775    0.0564   -0.1444 C   0  0  0  0  0  0  0  0  0  0  0  0
    1.2879    0.3086   -0.3133 N   0  0  0  0  0  0  0  0  0  0  0  0
    1.8826    1.2664   -1.1460 C   0  0  0  0  0  0  0  0  0  0  0  0
    3.1941    1.0321   -1.5919 C   0  0  0  0  0  0  0  0  0  0  0  0
    3.8347    1.9754   -2.4034 C   0  0  0  0  0  0  0  0  0  0  0  0
    3.2027    3.1351   -2.7666 C   0  0  0  0  0  0  0  0  0  0  0  0
    4.1043    3.8255   -3.5593 N   0  0  0  0  0  0  0  0  0  0  0  0
    5.2780    3.1436   -3.7033 N   0  0  0  0  0  0  0  0  0  0  0  0
    5.1411    2.0296   -3.0217 C   0  0  0  0  0  0  0  0  0  0  0  0
    1.9057    3.4077   -2.3310 C   0  0  0  0  0  0  0  0  0  0  0  0
    1.2516    2.4729   -1.5141 C   0  0  0  0  0  0  0  0  0  0  0  0
   -0.9574    0.5157   -1.0529 N   0  0  0  0  0  0  0  0  0  0  0  0
   -2.2710    0.1927   -0.9264 C   0  0  0  0  0  0  0  0  0  0  0  0
   -2.7122   -0.6225    0.1350 C   0  0  0  0  0  0  0  0  0  0  0  0
   -1.8155   -1.1045    1.0858 C   0  0  0  0  0  0  0  0  0  0  0  0
   -3.3091    0.7063   -1.9302 C   0  0  0  0  0  0  0  0  0  0  0  0
   -2.7812    1.5485   -2.8673 F   0  0  0  0  0  0  0  0  0  0  0  0
   -4.2942    1.3798   -1.2651 F   0  0  0  0  0  0  0  0  0  0  0  0
   -3.8848   -0.3511   -2.5749 F   0  0  0  0  0  0  0  0  0  0  0  0
    1.2786   -0.6710    2.0522 H   0  0  0  0  0  0  0  0  0  0  0  0
    0.0271   -1.6535    2.7684 H   0  0  0  0  0  0  0  0  0  0  0  0
    1.8801   -0.4483    0.0051 H   0  0  0  0  0  0  0  0  0  0  0  0
    3.7114    0.1192   -1.3193 H   0  0  0  0  0  0  0  0  0  0  0  0
    3.9063    4.7298   -3.9882 H   0  0  0  0  0  0  0  0  0  0  0  0
    5.9013    1.2593   -2.9341 H   0  0  0  0  0  0  0  0  0  0  0  0
    1.4054    4.3282   -2.6145 H   0  0  0  0  0  0  0  0  0  0  0  0
    0.2518    2.7035   -1.1641 H   0  0  0  0  0  0  0  0  0  0  0  0
   -3.7672   -0.8718    0.2105 H   0  0  0  0  0  0  0  0  0  0  0  0
   -2.1621   -1.7270    1.9049 H   0  0  0  0  0  0  0  0  0  0  0  0
  1  2  1  0
  1 22  1  0
  1 23  1  0
  2  3  2  0
  2 17  1  0
  3  4  1  0
  3 14  1  0
  4  5  1  0
  4 24  1  0
  5  6  2  0
  5 13  1  0
  6  7  1  0
  6 25  1  0
  7  8  2  0
  7 11  1  0
  8  9  1  0
  8 12  1  0
  9 10  1  0
  9 26  1  0
 10 11  2  0
 11 27  1  0
 12 13  2  0
 12 28  1  0
 13 29  1  0
 14 15  2  0
 15 16  1  0
 15 18  1  0
 16 17  2  0
 16 30  1  0
 17 31  1  0
 18 19  1  0
 18 20  1  0
 18 21  1  0
M  END
>  <group_name>  (1) 
JNS

>  <molecule_index>  (1) 
00129

>  <conformer_index>  (1) 
02

>  <method>  (1) 
openff-1.3.0

>  <basis>  (1) 
smirnoff

>  <program>  (1) 
openmm

>  <initial_energy>  (1) 
128.2301423293101 kilocalorie / mole

>  <final_energy>  (1) 
116.63462849185058 kilocalorie / mole

$$$$
