JNS-01614-02
     RDKit          3D

 39 42  0  0  0  0  0  0  0  0999 V2000
   -0.2632   -0.8681    1.4277 C   0  0  0  0  0  0  0  0  0  0  0  0
    0.0697    0.3101    0.5085 C   0  0  0  0  0  0  0  0  0  0  0  0
    1.4968    0.2445    0.0151 C   0  0  0  0  0  0  0  0  0  0  0  0
    2.3604    1.1530    0.4052 N   0  0  0  0  0  0  0  0  0  0  0  0
    3.5698    0.7501   -0.1367 C   0  0  0  0  0  0  0  0  0  0  0  0
    3.4384   -0.4182   -0.8623 C   0  0  0  0  0  0  0  0  0  0  0  0
    4.4613   -1.0294   -1.4932 N   0  0  0  0  0  0  0  0  0  0  0  0
    5.6928   -0.4531   -1.3970 C   0  0  0  0  0  0  0  0  0  0  0  0
    5.8772    0.7435   -0.6616 C   0  0  0  0  0  0  0  0  0  0  0  0
    4.8039    1.3619   -0.0183 C   0  0  0  0  0  0  0  0  0  0  0  0
    6.9118   -1.0909   -2.0760 C   0  0  0  0  0  0  0  0  0  0  0  0
    7.4139   -0.2381   -3.0171 F   0  0  0  0  0  0  0  0  0  0  0  0
    7.8894   -1.3198   -1.1496 F   0  0  0  0  0  0  0  0  0  0  0  0
    6.6237   -2.2800   -2.6850 F   0  0  0  0  0  0  0  0  0  0  0  0
    2.0953   -0.7369   -0.7946 N   0  0  0  0  0  0  0  0  0  0  0  0
    1.4841   -1.8506   -1.4026 C   0  0  0  0  0  0  0  0  0  0  0  0
    0.2323   -1.7467   -2.0392 C   0  0  0  0  0  0  0  0  0  0  0  0
   -0.3454   -2.8781   -2.6206 C   0  0  0  0  0  0  0  0  0  0  0  0
    0.2925   -4.0902   -2.5969 C   0  0  0  0  0  0  0  0  0  0  0  0
   -0.5483   -4.9681   -3.2617 N   0  0  0  0  0  0  0  0  0  0  0  0
   -1.6837   -4.3514   -3.7012 N   0  0  0  0  0  0  0  0  0  0  0  0
   -1.5850   -3.0956   -3.3332 C   0  0  0  0  0  0  0  0  0  0  0  0
    1.5448   -4.2360   -1.9926 C   0  0  0  0  0  0  0  0  0  0  0  0
    2.2596   -5.5630   -1.9995 C   0  0  0  0  0  0  0  0  0  0  0  0
    2.1336   -3.1037   -1.4042 C   0  0  0  0  0  0  0  0  0  0  0  0
   -0.1696   -1.8187    0.8940 H   0  0  0  0  0  0  0  0  0  0  0  0
    0.4154   -0.8805    2.2866 H   0  0  0  0  0  0  0  0  0  0  0  0
   -1.2898   -0.7781    1.7957 H   0  0  0  0  0  0  0  0  0  0  0  0
   -0.6253    0.3381   -0.3311 H   0  0  0  0  0  0  0  0  0  0  0  0
   -0.0690    1.2419    1.0659 H   0  0  0  0  0  0  0  0  0  0  0  0
    6.8675    1.1846   -0.5983 H   0  0  0  0  0  0  0  0  0  0  0  0
    4.9113    2.2792    0.5536 H   0  0  0  0  0  0  0  0  0  0  0  0
   -0.2805   -0.7960   -2.1218 H   0  0  0  0  0  0  0  0  0  0  0  0
   -0.3317   -5.9540   -3.4108 H   0  0  0  0  0  0  0  0  0  0  0  0
   -2.3292   -2.3307   -3.5339 H   0  0  0  0  0  0  0  0  0  0  0  0
    2.2354   -6.0007   -3.0019 H   0  0  0  0  0  0  0  0  0  0  0  0
    3.3070   -5.4411   -1.7067 H   0  0  0  0  0  0  0  0  0  0  0  0
    1.7782   -6.2502   -1.2976 H   0  0  0  0  0  0  0  0  0  0  0  0
    3.1071   -3.2037   -0.9333 H   0  0  0  0  0  0  0  0  0  0  0  0
  1  2  1  0
  1 26  1  0
  1 27  1  0
  1 28  1  0
  2  3  1  0
  2 29  1  0
  2 30  1  0
  3  4  2  0
  3 15  1  0
  4  5  1  0
  5  6  2  0
  5 10  1  0
  6  7  1  0
  6 15  1  0
  7  8  2  0
  8  9  1  0
  8 11  1  0
  9 10  2  0
  9 31  1  0
 10 32  1  0
 11 12  1  0
 11 13  1  0
 11 14  1  0
 15 16  1  0
 16 17  2  0
 16 25  1  0
 17 18  1  0
 17 33  1  0
 18 19  2  0
 18 22  1  0
 19 20  1  0
 19 23  1  0
 20 21  1  0
 20 34  1  0
 21 22  2  0
 22 35  1  0
 23 24  1  0
 23 25  2  0
 24 36  1  0
 24 37  1  0
 24 38  1  0
 25 39  1  0
M  END
>  <group_name>  (1) 
JNS

>  <molecule_index>  (1) 
01614

>  <conformer_index>  (1) 
02

>  <method>  (1) 
openff-1.3.0

>  <basis>  (1) 
smirnoff

>  <program>  (1) 
openmm

>  <initial_energy>  (1) 
147.7795524219929 kilocalorie / mole

>  <final_energy>  (1) 
137.19198765108985 kilocalorie / mole

$$$$
