JNS-02239-07
     RDKit          3D

 53 57  0  0  0  0  0  0  0  0999 V2000
   -3.8539   -0.1140    0.6942 C   0  0  0  0  0  0  0  0  0  0  0  0
   -2.5494    0.3637    0.2402 N   0  0  0  0  0  0  0  0  0  0  0  0
   -1.3368   -0.1450    0.6710 C   0  0  0  0  0  0  0  0  0  0  0  0
   -0.3686    0.5529    0.0042 C   0  0  0  0  0  0  0  0  0  0  0  0
   -1.0926    1.4639   -0.8584 C   0  0  0  0  0  0  0  0  0  0  0  0
   -2.3847    1.3356   -0.6904 N   0  0  0  0  0  0  0  0  0  0  0  0
    1.0729    0.3331    0.1219 C   0  0  0  0  0  0  0  0  0  0  0  0
    2.0275    1.3360   -0.0609 C   0  0  0  0  0  0  0  0  0  0  0  0
    1.6604    2.7977   -0.3305 C   0  0  0  0  0  0  0  0  0  0  0  0
    2.8194    3.7458    0.0131 C   0  0  1  0  0  0  0  0  0  0  0  0
    3.0534    3.7747    1.5484 C   0  0  0  0  0  0  0  0  0  0  0  0
    4.5314    3.5993    1.9232 C   0  0  0  0  0  0  0  0  0  0  0  0
    5.1617    2.3616    1.2466 C   0  0  0  0  0  0  0  0  0  0  0  0
    4.5045    1.9804   -0.1023 C   0  0  2  0  0  0  0  0  0  0  0  0
    3.9796    3.2111   -0.7028 N   0  0  0  0  0  0  0  0  0  0  0  0
    4.2465    3.5893   -2.0142 C   0  0  0  0  0  0  0  0  0  0  0  0
    3.4926    4.3816   -2.5742 O   0  0  0  0  0  0  0  0  0  0  0  0
    5.3313    3.0122   -2.8188 C   0  0  0  0  0  0  0  0  0  0  0  0
    5.0627    2.4926   -4.0883 C   0  0  0  0  0  0  0  0  0  0  0  0
    6.0896    1.9497   -4.8575 C   0  0  0  0  0  0  0  0  0  0  0  0
    7.3648    1.9022   -4.4348 N   0  0  0  0  0  0  0  0  0  0  0  0
    7.6673    2.4315   -3.2133 C   0  0  0  0  0  0  0  0  0  0  0  0
    6.6657    3.0037   -2.3893 C   0  0  0  0  0  0  0  0  0  0  0  0
    6.9924    3.5706   -1.1979 F   0  0  0  0  0  0  0  0  0  0  0  0
    9.1129    2.4127   -2.7063 C   0  0  0  0  0  0  0  0  0  0  0  0
    9.5640    3.6871   -2.5151 F   0  0  0  0  0  0  0  0  0  0  0  0
    9.9659    1.7993   -3.5797 F   0  0  0  0  0  0  0  0  0  0  0  0
    9.1845    1.7363   -1.5217 F   0  0  0  0  0  0  0  0  0  0  0  0
    3.3732    0.9682    0.0782 C   0  0  0  0  0  0  0  0  0  0  0  0
    3.7177   -0.2923    0.3390 N   0  0  0  0  0  0  0  0  0  0  0  0
    2.7407   -1.1800    0.5292 C   0  0  0  0  0  0  0  0  0  0  0  0
    3.1346   -2.5936    0.8207 C   0  0  0  0  0  0  0  0  0  0  0  0
    1.4407   -0.9090    0.4329 N   0  0  0  0  0  0  0  0  0  0  0  0
   -3.8981   -1.2044    0.6269 H   0  0  0  0  0  0  0  0  0  0  0  0
   -4.6431    0.3048    0.0630 H   0  0  0  0  0  0  0  0  0  0  0  0
   -4.0270    0.1976    1.7278 H   0  0  0  0  0  0  0  0  0  0  0  0
   -1.1787   -0.9451    1.3893 H   0  0  0  0  0  0  0  0  0  0  0  0
   -0.6455    2.1482   -1.5713 H   0  0  0  0  0  0  0  0  0  0  0  0
    0.7818    3.0916    0.2528 H   0  0  0  0  0  0  0  0  0  0  0  0
    1.4193    2.9160   -1.3915 H   0  0  0  0  0  0  0  0  0  0  0  0
    2.5899    4.7637   -0.3213 H   0  0  0  0  0  0  0  0  0  0  0  0
    2.6782    4.7201    1.9522 H   0  0  0  0  0  0  0  0  0  0  0  0
    2.4857    2.9782    2.0406 H   0  0  0  0  0  0  0  0  0  0  0  0
    5.0752    4.4922    1.5961 H   0  0  0  0  0  0  0  0  0  0  0  0
    4.6425    3.5300    3.0100 H   0  0  0  0  0  0  0  0  0  0  0  0
    5.1265    1.5026    1.9248 H   0  0  0  0  0  0  0  0  0  0  0  0
    6.2206    2.5795    1.0807 H   0  0  0  0  0  0  0  0  0  0  0  0
    5.2535    1.4934   -0.7316 H   0  0  0  0  0  0  0  0  0  0  0  0
    4.0513    2.5105   -4.4851 H   0  0  0  0  0  0  0  0  0  0  0  0
    5.8519    1.5463   -5.8376 H   0  0  0  0  0  0  0  0  0  0  0  0
    3.2066   -2.7362    1.9015 H   0  0  0  0  0  0  0  0  0  0  0  0
    4.1027   -2.8179    0.3649 H   0  0  0  0  0  0  0  0  0  0  0  0
    2.3884   -3.2836    0.4177 H   0  0  0  0  0  0  0  0  0  0  0  0
  1  2  1  0
  1 34  1  0
  1 35  1  0
  1 36  1  0
  2  3  1  0
  2  6  1  0
  3  4  2  0
  3 37  1  0
  4  5  1  0
  4  7  1  0
  5  6  2  0
  5 38  1  0
  7  8  1  0
  7 33  2  0
  8  9  1  0
  8 29  2  0
  9 10  1  0
  9 39  1  0
  9 40  1  0
 10 11  1  0
 10 15  1  0
 10 41  1  6
 11 12  1  0
 11 42  1  0
 11 43  1  0
 12 13  1  0
 12 44  1  0
 12 45  1  0
 13 14  1  0
 13 46  1  0
 13 47  1  0
 14 15  1  0
 14 29  1  0
 14 48  1  6
 15 16  1  0
 16 17  2  0
 16 18  1  0
 18 19  2  0
 18 23  1  0
 19 20  1  0
 19 49  1  0
 20 21  2  0
 20 50  1  0
 21 22  1  0
 22 23  2  0
 22 25  1  0
 23 24  1  0
 25 26  1  0
 25 27  1  0
 25 28  1  0
 29 30  1  0
 30 31  2  0
 31 32  1  0
 31 33  1  0
 32 51  1  0
 32 52  1  0
 32 53  1  0
M  END
>  <group_name>  (1) 
JNS

>  <molecule_index>  (1) 
02239

>  <conformer_index>  (1) 
07

>  <method>  (1) 
openff-1.3.0

>  <basis>  (1) 
smirnoff

>  <program>  (1) 
openmm

>  <initial_energy>  (1) 
28.180496934793695 kilocalorie / mole

>  <final_energy>  (1) 
16.543624483769985 kilocalorie / mole

$$$$
