JNS-01356-01
     RDKit          3D

 33 36  0  0  0  0  0  0  0  0999 V2000
   -1.6964   -3.4527    0.7019 F   0  0  0  0  0  0  0  0  0  0  0  0
   -0.6294   -2.6649    1.0272 C   0  0  0  0  0  0  0  0  0  0  0  0
   -0.3798   -2.8209    2.3602 F   0  0  0  0  0  0  0  0  0  0  0  0
    0.4410   -3.1388    0.3255 F   0  0  0  0  0  0  0  0  0  0  0  0
   -0.9118   -1.1887    0.7196 C   0  0  0  0  0  0  0  0  0  0  0  0
   -2.1336   -0.6865    0.7824 N   0  0  0  0  0  0  0  0  0  0  0  0
   -2.0284    0.6156    0.3279 C   0  0  0  0  0  0  0  0  0  0  0  0
   -0.7308    0.9247   -0.0181 C   0  0  0  0  0  0  0  0  0  0  0  0
   -0.3468    2.1259   -0.4927 N   0  0  0  0  0  0  0  0  0  0  0  0
   -1.3081    3.0813   -0.6396 C   0  0  0  0  0  0  0  0  0  0  0  0
   -2.6557    2.8091   -0.3003 C   0  0  0  0  0  0  0  0  0  0  0  0
   -3.0310    1.5585    0.1925 C   0  0  0  0  0  0  0  0  0  0  0  0
   -0.9541    4.4713   -1.1835 C   0  0  0  0  0  0  0  0  0  0  0  0
   -1.2228    5.4172   -0.2364 F   0  0  0  0  0  0  0  0  0  0  0  0
   -1.7171    4.7429   -2.2831 F   0  0  0  0  0  0  0  0  0  0  0  0
    0.3597    4.5821   -1.5427 F   0  0  0  0  0  0  0  0  0  0  0  0
    0.0047   -0.2119    0.2653 N   0  0  0  0  0  0  0  0  0  0  0  0
    1.4119   -0.2870    0.2197 C   0  0  0  0  0  0  0  0  0  0  0  0
    2.1214    0.3192   -0.8359 C   0  0  0  0  0  0  0  0  0  0  0  0
    3.5128    0.2478   -0.8685 C   0  0  0  0  0  0  0  0  0  0  0  0
    4.2220   -0.3990    0.1176 C   0  0  0  0  0  0  0  0  0  0  0  0
    5.5694   -0.3107   -0.1715 N   0  0  0  0  0  0  0  0  0  0  0  0
    5.6111    0.3665   -1.2830 C   0  0  0  0  0  0  0  0  0  0  0  0
    6.7623    0.6845   -1.9188 O   0  0  0  0  0  0  0  0  0  0  0  0
    4.3894    0.7480   -1.7823 O   0  0  0  0  0  0  0  0  0  0  0  0
    3.5555   -0.9995    1.1920 C   0  0  0  0  0  0  0  0  0  0  0  0
    4.5199   -1.8881    2.5879 Br  0  0  0  0  0  0  0  0  0  0  0  0
    2.1532   -0.9314    1.2360 C   0  0  0  0  0  0  0  0  0  0  0  0
   -3.4057    3.5848   -0.4256 H   0  0  0  0  0  0  0  0  0  0  0  0
   -4.0559    1.3168    0.4622 H   0  0  0  0  0  0  0  0  0  0  0  0
    1.6074    0.8406   -1.6378 H   0  0  0  0  0  0  0  0  0  0  0  0
    6.5108    1.1914   -2.7004 H   0  0  0  0  0  0  0  0  0  0  0  0
    1.6571   -1.3708    2.0941 H   0  0  0  0  0  0  0  0  0  0  0  0
  1  2  1  0
  2  3  1  0
  2  4  1  0
  2  5  1  0
  5  6  2  0
  5 17  1  0
  6  7  1  0
  7  8  2  0
  7 12  1  0
  8  9  1  0
  8 17  1  0
  9 10  2  0
 10 11  1  0
 10 13  1  0
 11 12  2  0
 11 29  1  0
 12 30  1  0
 13 14  1  0
 13 15  1  0
 13 16  1  0
 17 18  1  0
 18 19  2  0
 18 28  1  0
 19 20  1  0
 19 31  1  0
 20 21  2  0
 20 25  1  0
 21 22  1  0
 21 26  1  0
 22 23  2  0
 23 24  1  0
 23 25  1  0
 24 32  1  0
 26 27  1  0
 26 28  2  0
 28 33  1  0
M  END
>  <group_name>  (1) 
JNS

>  <molecule_index>  (1) 
01356

>  <conformer_index>  (1) 
01

>  <method>  (1) 
openff-1.3.0

>  <basis>  (1) 
smirnoff

>  <program>  (1) 
openmm

>  <initial_energy>  (1) 
132.05256409290604 kilocalorie / mole

>  <final_energy>  (1) 
120.17054277665454 kilocalorie / mole

$$$$
