JNS-02466-07
     RDKit          3D

 53 56  0  0  0  0  0  0  0  0999 V2000
   -0.5468    1.5611   -0.0679 C   0  0  0  0  0  0  0  0  0  0  0  0
   -0.0443    0.1104   -0.0216 C   0  0  2  0  0  0  0  0  0  0  0  0
    1.4425    0.0071    0.0999 N   0  0  0  0  0  0  0  0  0  0  0  0
    2.0392    0.7778    1.2158 C   0  0  0  0  0  0  0  0  0  0  0  0
    3.5681    0.7372    1.1590 C   0  0  0  0  0  0  0  0  0  0  0  0
    4.0847   -0.7024    1.1607 C   0  0  0  0  0  0  0  0  0  0  0  0
    3.4412   -1.4733    0.0011 C   0  0  2  0  0  0  0  0  0  0  0  0
    1.9120   -1.4004    0.0855 C   0  0  0  0  0  0  0  0  0  0  0  0
    3.9105   -2.9135   -0.0235 C   0  0  0  0  0  0  0  0  0  0  0  0
    3.6586   -3.7969    1.0251 C   0  0  0  0  0  0  0  0  0  0  0  0
    4.1058   -5.1348    0.9748 C   0  0  0  0  0  0  0  0  0  0  0  0
    4.7942   -5.5884   -0.1065 N   0  0  0  0  0  0  0  0  0  0  0  0
    5.0423   -4.7478   -1.1240 C   0  0  0  0  0  0  0  0  0  0  0  0
    5.8030   -5.2816   -2.3029 C   0  0  0  0  0  0  0  0  0  0  0  0
    4.6162   -3.4166   -1.1100 C   0  0  0  0  0  0  0  0  0  0  0  0
    3.8205   -6.0919    2.1444 C   0  0  0  0  0  0  0  0  0  0  0  0
    3.1365   -5.4850    3.1612 F   0  0  0  0  0  0  0  0  0  0  0  0
    3.0654   -7.1488    1.7231 F   0  0  0  0  0  0  0  0  0  0  0  0
    4.9885   -6.5645    2.6710 F   0  0  0  0  0  0  0  0  0  0  0  0
   -0.5892   -0.5889   -1.2653 C   0  0  0  0  0  0  0  0  0  0  0  0
   -1.6004   -1.4680   -1.1182 N   0  0  0  0  0  0  0  0  0  0  0  0
   -2.0615   -2.0981   -2.2136 C   0  0  0  0  0  0  0  0  0  0  0  0
   -1.5083   -1.8979   -3.5081 C   0  0  0  0  0  0  0  0  0  0  0  0
   -1.9505   -2.5786   -4.6283 O   0  0  0  0  0  0  0  0  0  0  0  0
   -2.8028   -3.6999   -4.3336 C   0  0  0  0  0  0  0  0  0  0  0  0
   -3.7981   -3.3565   -3.2256 C   0  0  0  0  0  0  0  0  0  0  0  0
   -3.1209   -2.9594   -2.0201 O   0  0  0  0  0  0  0  0  0  0  0  0
   -0.4718   -0.9860   -3.6549 C   0  0  0  0  0  0  0  0  0  0  0  0
   -0.0113   -0.3315   -2.5187 C   0  0  0  0  0  0  0  0  0  0  0  0
   -1.6285    1.5757   -0.2351 H   0  0  0  0  0  0  0  0  0  0  0  0
   -0.3613    2.0745    0.8787 H   0  0  0  0  0  0  0  0  0  0  0  0
   -0.0587    2.1121   -0.8775 H   0  0  0  0  0  0  0  0  0  0  0  0
   -0.4932   -0.3695    0.8548 H   0  0  0  0  0  0  0  0  0  0  0  0
    1.6947    0.3732    2.1737 H   0  0  0  0  0  0  0  0  0  0  0  0
    1.7407    1.8283    1.1688 H   0  0  0  0  0  0  0  0  0  0  0  0
    3.9808    1.2787    2.0155 H   0  0  0  0  0  0  0  0  0  0  0  0
    3.9054    1.2442    0.2492 H   0  0  0  0  0  0  0  0  0  0  0  0
    3.8392   -1.1745    2.1173 H   0  0  0  0  0  0  0  0  0  0  0  0
    5.1740   -0.7058    1.0522 H   0  0  0  0  0  0  0  0  0  0  0  0
    3.7408   -0.9892   -0.9343 H   0  0  0  0  0  0  0  0  0  0  0  0
    1.5029   -1.9408   -0.7738 H   0  0  0  0  0  0  0  0  0  0  0  0
    1.5609   -1.9116    0.9880 H   0  0  0  0  0  0  0  0  0  0  0  0
    3.1101   -3.4444    1.8919 H   0  0  0  0  0  0  0  0  0  0  0  0
    5.9383   -4.5126   -3.0681 H   0  0  0  0  0  0  0  0  0  0  0  0
    6.7867   -5.6316   -1.9775 H   0  0  0  0  0  0  0  0  0  0  0  0
    5.2585   -6.1226   -2.7414 H   0  0  0  0  0  0  0  0  0  0  0  0
    4.8407   -2.7761   -1.9559 H   0  0  0  0  0  0  0  0  0  0  0  0
   -2.1927   -4.5547   -4.0246 H   0  0  0  0  0  0  0  0  0  0  0  0
   -3.3498   -3.9866   -5.2366 H   0  0  0  0  0  0  0  0  0  0  0  0
   -4.4233   -4.2300   -3.0171 H   0  0  0  0  0  0  0  0  0  0  0  0
   -4.4549   -2.5478   -3.5622 H   0  0  0  0  0  0  0  0  0  0  0  0
   -0.0320   -0.8084   -4.6324 H   0  0  0  0  0  0  0  0  0  0  0  0
    0.8110    0.3743   -2.5821 H   0  0  0  0  0  0  0  0  0  0  0  0
  1  2  1  0
  1 30  1  0
  1 31  1  0
  1 32  1  0
  2  3  1  0
  2 20  1  0
  2 33  1  1
  3  4  1  0
  3  8  1  0
  4  5  1  0
  4 34  1  0
  4 35  1  0
  5  6  1  0
  5 36  1  0
  5 37  1  0
  6  7  1  0
  6 38  1  0
  6 39  1  0
  7  8  1  0
  7  9  1  0
  7 40  1  6
  8 41  1  0
  8 42  1  0
  9 10  2  0
  9 15  1  0
 10 11  1  0
 10 43  1  0
 11 12  2  0
 11 16  1  0
 12 13  1  0
 13 14  1  0
 13 15  2  0
 14 44  1  0
 14 45  1  0
 14 46  1  0
 15 47  1  0
 16 17  1  0
 16 18  1  0
 16 19  1  0
 20 21  2  0
 20 29  1  0
 21 22  1  0
 22 23  2  0
 22 27  1  0
 23 24  1  0
 23 28  1  0
 24 25  1  0
 25 26  1  0
 25 48  1  0
 25 49  1  0
 26 27  1  0
 26 50  1  0
 26 51  1  0
 28 29  2  0
 28 52  1  0
 29 53  1  0
M  END
>  <group_name>  (1) 
JNS

>  <molecule_index>  (1) 
02466

>  <conformer_index>  (1) 
07

>  <method>  (1) 
openff-1.3.0

>  <basis>  (1) 
smirnoff

>  <program>  (1) 
openmm

>  <initial_energy>  (1) 
108.15747221687263 kilocalorie / mole

>  <final_energy>  (1) 
101.54140309929713 kilocalorie / mole

$$$$
