JNS-01082-05
     RDKit          3D

 43 46  0  0  0  0  0  0  0  0999 V2000
   -0.2502    3.5085    0.7128 C   0  0  0  0  0  0  0  0  0  0  0  0
    0.3685    2.4840   -0.2461 C   0  0  2  0  0  0  0  0  0  0  0  0
    0.3977    2.9983   -1.6962 C   0  0  0  0  0  0  0  0  0  0  0  0
   -0.9989    3.0507   -2.2722 C   0  0  0  0  0  0  0  0  0  0  0  0
   -1.9484    2.1819   -1.8375 C   0  0  0  0  0  0  0  0  0  0  0  0
   -1.7033    1.1141   -0.8001 C   0  0  0  0  0  0  0  0  0  0  0  0
   -0.3749    1.2147   -0.1621 N   0  0  0  0  0  0  0  0  0  0  0  0
    0.0420    0.1691    0.6563 C   0  0  0  0  0  0  0  0  0  0  0  0
   -0.7522   -0.7276    0.9284 O   0  0  0  0  0  0  0  0  0  0  0  0
    1.3740    0.0884    1.2706 C   0  0  0  0  0  0  0  0  0  0  0  0
    2.5532    0.1282    0.5125 C   0  0  0  0  0  0  0  0  0  0  0  0
    2.4790    0.2387   -0.8416 F   0  0  0  0  0  0  0  0  0  0  0  0
    3.8099    0.0342    1.1614 C   0  0  0  0  0  0  0  0  0  0  0  0
    3.9012   -0.1187    2.5150 N   0  0  0  0  0  0  0  0  0  0  0  0
    2.7659   -0.2009    3.2304 C   0  0  0  0  0  0  0  0  0  0  0  0
    1.5031   -0.1053    2.6490 C   0  0  0  0  0  0  0  0  0  0  0  0
    5.0813    0.1145    0.3114 C   0  0  0  0  0  0  0  0  0  0  0  0
    5.1168   -0.9134   -0.5862 F   0  0  0  0  0  0  0  0  0  0  0  0
    5.1115    1.2981   -0.3700 F   0  0  0  0  0  0  0  0  0  0  0  0
    6.2194    0.0468    1.0641 F   0  0  0  0  0  0  0  0  0  0  0  0
   -3.1679    2.4768   -2.4119 N   0  0  0  0  0  0  0  0  0  0  0  0
   -2.9896    3.5066   -3.1989 N   0  0  0  0  0  0  0  0  0  0  0  0
   -1.6794    3.8868   -3.1520 N   0  0  0  0  0  0  0  0  0  0  0  0
   -1.1372    4.9365   -3.9317 C   0  0  0  0  0  0  0  0  0  0  0  0
    0.1918    5.1744   -3.8796 N   0  0  0  0  0  0  0  0  0  0  0  0
    0.6889    6.1613   -4.6329 C   0  0  0  0  0  0  0  0  0  0  0  0
   -0.1136    6.9406   -5.4538 C   0  0  0  0  0  0  0  0  0  0  0  0
    0.4241    7.9568   -6.2236 O   0  0  0  0  0  0  0  0  0  0  0  0
   -1.4692    6.6397   -5.4520 C   0  0  0  0  0  0  0  0  0  0  0  0
   -1.9768    5.6582   -4.7064 N   0  0  0  0  0  0  0  0  0  0  0  0
    0.3050    4.4503    0.6700 H   0  0  0  0  0  0  0  0  0  0  0  0
   -1.2950    3.7118    0.4585 H   0  0  0  0  0  0  0  0  0  0  0  0
   -0.2122    3.1328    1.7397 H   0  0  0  0  0  0  0  0  0  0  0  0
    1.4079    2.3552    0.0624 H   0  0  0  0  0  0  0  0  0  0  0  0
    1.0057    2.3269   -2.3104 H   0  0  0  0  0  0  0  0  0  0  0  0
    0.8679    3.9847   -1.7171 H   0  0  0  0  0  0  0  0  0  0  0  0
   -2.4854    1.1797   -0.0372 H   0  0  0  0  0  0  0  0  0  0  0  0
   -1.8007    0.1407   -1.2915 H   0  0  0  0  0  0  0  0  0  0  0  0
    2.8378   -0.3455    4.3046 H   0  0  0  0  0  0  0  0  0  0  0  0
    0.6196   -0.1888    3.2762 H   0  0  0  0  0  0  0  0  0  0  0  0
    1.7565    6.3592   -4.6002 H   0  0  0  0  0  0  0  0  0  0  0  0
   -0.2492    8.4098   -6.7629 H   0  0  0  0  0  0  0  0  0  0  0  0
   -2.1440    7.2185   -6.0757 H   0  0  0  0  0  0  0  0  0  0  0  0
  1  2  1  0
  1 31  1  0
  1 32  1  0
  1 33  1  0
  2  3  1  0
  2  7  1  0
  2 34  1  1
  3  4  1  0
  3 35  1  0
  3 36  1  0
  4  5  2  0
  4 23  1  0
  5  6  1  0
  5 21  1  0
  6  7  1  0
  6 37  1  0
  6 38  1  0
  7  8  1  0
  8  9  2  0
  8 10  1  0
 10 11  2  0
 10 16  1  0
 11 12  1  0
 11 13  1  0
 13 14  2  0
 13 17  1  0
 14 15  1  0
 15 16  2  0
 15 39  1  0
 16 40  1  0
 17 18  1  0
 17 19  1  0
 17 20  1  0
 21 22  2  0
 22 23  1  0
 23 24  1  0
 24 25  2  0
 24 30  1  0
 25 26  1  0
 26 27  2  0
 26 41  1  0
 27 28  1  0
 27 29  1  0
 28 42  1  0
 29 30  2  0
 29 43  1  0
M  END
>  <group_name>  (1) 
JNS

>  <molecule_index>  (1) 
01082

>  <conformer_index>  (1) 
05

>  <method>  (1) 
openff-1.3.0

>  <basis>  (1) 
smirnoff

>  <program>  (1) 
openmm

>  <initial_energy>  (1) 
113.48534405349857 kilocalorie / mole

>  <final_energy>  (1) 
102.33089932939686 kilocalorie / mole

$$$$
