JNS-01364-00
     RDKit          3D

 34 37  0  0  0  0  0  0  0  0999 V2000
   -1.7117   -3.6027   -0.6122 F   0  0  0  0  0  0  0  0  0  0  0  0
   -0.7990   -2.9473    0.1642 C   0  0  0  0  0  0  0  0  0  0  0  0
    0.4360   -3.2696   -0.3198 F   0  0  0  0  0  0  0  0  0  0  0  0
   -0.9039   -3.4320    1.4364 F   0  0  0  0  0  0  0  0  0  0  0  0
   -1.0468   -1.4336    0.1619 C   0  0  0  0  0  0  0  0  0  0  0  0
   -2.2584   -0.9255    0.0091 N   0  0  0  0  0  0  0  0  0  0  0  0
   -2.0839    0.4455   -0.0584 C   0  0  0  0  0  0  0  0  0  0  0  0
   -0.7553    0.7906    0.0571 C   0  0  0  0  0  0  0  0  0  0  0  0
   -0.3047    2.0597    0.0311 N   0  0  0  0  0  0  0  0  0  0  0  0
   -1.2223    3.0550   -0.1304 C   0  0  0  0  0  0  0  0  0  0  0  0
   -2.6019    2.7469   -0.2611 C   0  0  0  0  0  0  0  0  0  0  0  0
   -3.0460    1.4241   -0.2246 C   0  0  0  0  0  0  0  0  0  0  0  0
   -0.7459    4.5161   -0.1686 C   0  0  0  0  0  0  0  0  0  0  0  0
    0.1221    4.7044   -1.2053 F   0  0  0  0  0  0  0  0  0  0  0  0
   -1.7800    5.3944   -0.3362 F   0  0  0  0  0  0  0  0  0  0  0  0
   -0.1196    4.8424    0.9999 F   0  0  0  0  0  0  0  0  0  0  0  0
   -0.0810   -0.4037    0.2337 N   0  0  0  0  0  0  0  0  0  0  0  0
    1.2909   -0.5119    0.5392 C   0  0  0  0  0  0  0  0  0  0  0  0
    2.2307    0.3028   -0.1248 C   0  0  0  0  0  0  0  0  0  0  0  0
    3.5906    0.1952    0.1867 C   0  0  0  0  0  0  0  0  0  0  0  0
    4.0294   -0.6849    1.1403 C   0  0  0  0  0  0  0  0  0  0  0  0
    5.4049   -0.5302    1.1930 N   0  0  0  0  0  0  0  0  0  0  0  0
    5.8424    0.4105    0.3072 N   0  0  0  0  0  0  0  0  0  0  0  0
    4.7751    0.8674   -0.3130 C   0  0  0  0  0  0  0  0  0  0  0  0
    4.7790    1.8677   -1.3336 C   0  0  0  0  0  0  0  0  0  0  0  0
    4.7581    2.6764   -2.1763 N   0  0  0  0  0  0  0  0  0  0  0  0
    3.1278   -1.4945    1.8307 C   0  0  0  0  0  0  0  0  0  0  0  0
    1.7602   -1.4017    1.5315 C   0  0  0  0  0  0  0  0  0  0  0  0
   -3.3341    3.5381   -0.3906 H   0  0  0  0  0  0  0  0  0  0  0  0
   -4.0946    1.1548   -0.3204 H   0  0  0  0  0  0  0  0  0  0  0  0
    1.9119    1.0109   -0.8860 H   0  0  0  0  0  0  0  0  0  0  0  0
    6.0157   -1.0547    1.8204 H   0  0  0  0  0  0  0  0  0  0  0  0
    3.4749   -2.1828    2.5957 H   0  0  0  0  0  0  0  0  0  0  0  0
    1.0699   -2.0142    2.1014 H   0  0  0  0  0  0  0  0  0  0  0  0
  1  2  1  0
  2  3  1  0
  2  4  1  0
  2  5  1  0
  5  6  2  0
  5 17  1  0
  6  7  1  0
  7  8  2  0
  7 12  1  0
  8  9  1  0
  8 17  1  0
  9 10  2  0
 10 11  1  0
 10 13  1  0
 11 12  2  0
 11 29  1  0
 12 30  1  0
 13 14  1  0
 13 15  1  0
 13 16  1  0
 17 18  1  0
 18 19  2  0
 18 28  1  0
 19 20  1  0
 19 31  1  0
 20 21  2  0
 20 24  1  0
 21 22  1  0
 21 27  1  0
 22 23  1  0
 22 32  1  0
 23 24  2  0
 24 25  1  0
 25 26  3  0
 27 28  2  0
 27 33  1  0
 28 34  1  0
M  END
>  <group_name>  (1) 
JNS

>  <molecule_index>  (1) 
01364

>  <conformer_index>  (1) 
00

>  <method>  (1) 
openff-1.3.0

>  <basis>  (1) 
smirnoff

>  <program>  (1) 
openmm

>  <initial_energy>  (1) 
207.23666448033265 kilocalorie / mole

>  <final_energy>  (1) 
194.98542264499622 kilocalorie / mole

$$$$
