JNS-01380-00
     RDKit          3D

 34 37  0  0  0  0  0  0  0  0999 V2000
   -0.5371    1.4715   -0.3045 C   0  0  0  0  0  0  0  0  0  0  0  0
   -0.0409    0.1212   -0.3178 O   0  0  0  0  0  0  0  0  0  0  0  0
    1.3168   -0.0148   -0.1015 C   0  0  0  0  0  0  0  0  0  0  0  0
    2.1203    1.0050    0.1093 N   0  0  0  0  0  0  0  0  0  0  0  0
    3.3762    0.4410    0.2316 C   0  0  0  0  0  0  0  0  0  0  0  0
    3.3365   -0.9339    0.0902 C   0  0  0  0  0  0  0  0  0  0  0  0
    4.4285   -1.7204    0.1862 N   0  0  0  0  0  0  0  0  0  0  0  0
    5.6278   -1.1155    0.4216 C   0  0  0  0  0  0  0  0  0  0  0  0
    5.7136    0.2905    0.5640 C   0  0  0  0  0  0  0  0  0  0  0  0
    4.5736    1.0895    0.4706 C   0  0  0  0  0  0  0  0  0  0  0  0
    6.9153   -1.9421    0.5311 C   0  0  0  0  0  0  0  0  0  0  0  0
    6.7138   -3.2747    0.3056 F   0  0  0  0  0  0  0  0  0  0  0  0
    7.8297   -1.4934   -0.3791 F   0  0  0  0  0  0  0  0  0  0  0  0
    7.4521   -1.7937    1.7780 F   0  0  0  0  0  0  0  0  0  0  0  0
    2.0023   -1.2387   -0.1153 N   0  0  0  0  0  0  0  0  0  0  0  0
    1.4458   -2.5258   -0.2943 C   0  0  0  0  0  0  0  0  0  0  0  0
    0.1192   -2.8125    0.0999 C   0  0  0  0  0  0  0  0  0  0  0  0
   -0.4103   -4.0919   -0.0895 C   0  0  0  0  0  0  0  0  0  0  0  0
    0.3473   -5.0986   -0.6578 C   0  0  0  0  0  0  0  0  0  0  0  0
   -0.2740   -6.3324   -0.7985 N   0  0  0  0  0  0  0  0  0  0  0  0
   -1.4865   -6.2420   -0.3322 C   0  0  0  0  0  0  0  0  0  0  0  0
   -2.2228   -7.3710   -0.3996 O   0  0  0  0  0  0  0  0  0  0  0  0
   -2.0031   -4.6792    0.3160 S   0  0  0  0  0  0  0  0  0  0  0  0
    1.6573   -4.8535   -1.0514 C   0  0  0  0  0  0  0  0  0  0  0  0
    2.2025   -3.5734   -0.8706 C   0  0  0  0  0  0  0  0  0  0  0  0
   -0.3498    1.9421    0.6665 H   0  0  0  0  0  0  0  0  0  0  0  0
   -0.0545    2.0671   -1.0865 H   0  0  0  0  0  0  0  0  0  0  0  0
   -1.6157    1.4719   -0.4867 H   0  0  0  0  0  0  0  0  0  0  0  0
    6.6794    0.7509    0.7508 H   0  0  0  0  0  0  0  0  0  0  0  0
    4.6032    2.1699    0.5796 H   0  0  0  0  0  0  0  0  0  0  0  0
   -0.5100   -2.0677    0.5742 H   0  0  0  0  0  0  0  0  0  0  0  0
   -1.6253   -8.0189   -0.8035 H   0  0  0  0  0  0  0  0  0  0  0  0
    2.2406   -5.6543   -1.4944 H   0  0  0  0  0  0  0  0  0  0  0  0
    3.2227   -3.4101   -1.2026 H   0  0  0  0  0  0  0  0  0  0  0  0
  1  2  1  0
  1 26  1  0
  1 27  1  0
  1 28  1  0
  2  3  1  0
  3  4  2  0
  3 15  1  0
  4  5  1  0
  5  6  2  0
  5 10  1  0
  6  7  1  0
  6 15  1  0
  7  8  2  0
  8  9  1  0
  8 11  1  0
  9 10  2  0
  9 29  1  0
 10 30  1  0
 11 12  1  0
 11 13  1  0
 11 14  1  0
 15 16  1  0
 16 17  2  0
 16 25  1  0
 17 18  1  0
 17 31  1  0
 18 19  2  0
 18 23  1  0
 19 20  1  0
 19 24  1  0
 20 21  2  0
 21 22  1  0
 21 23  1  0
 22 32  1  0
 24 25  2  0
 24 33  1  0
 25 34  1  0
M  END
>  <group_name>  (1) 
JNS

>  <molecule_index>  (1) 
01380

>  <conformer_index>  (1) 
00

>  <method>  (1) 
openff-1.3.0

>  <basis>  (1) 
smirnoff

>  <program>  (1) 
openmm

>  <initial_energy>  (1) 
80.69840474913543 kilocalorie / mole

>  <final_energy>  (1) 
69.2138632807955 kilocalorie / mole

$$$$
