JNS-01795-08
     RDKit          3D

 43 46  0  0  0  0  0  0  0  0999 V2000
   -0.6491    0.8671   -1.5593 C   0  0  0  0  0  0  0  0  0  0  0  0
   -0.0918    0.3848   -0.2087 C   0  0  0  0  0  0  0  0  0  0  0  0
   -0.9327   -0.8016    0.3090 C   0  0  0  0  0  0  0  0  0  0  0  0
   -0.2953    1.5245    0.8175 C   0  0  0  0  0  0  0  0  0  0  0  0
    1.4103    0.0631   -0.3377 C   0  0  0  0  0  0  0  0  0  0  0  0
    2.2969    1.0368   -0.2606 N   0  0  0  0  0  0  0  0  0  0  0  0
    3.5345    0.4174   -0.2480 C   0  0  0  0  0  0  0  0  0  0  0  0
    3.4100   -0.9521   -0.3294 C   0  0  0  0  0  0  0  0  0  0  0  0
    4.4504   -1.8091   -0.3246 N   0  0  0  0  0  0  0  0  0  0  0  0
    5.6997   -1.2722   -0.2313 C   0  0  0  0  0  0  0  0  0  0  0  0
    5.8810    0.1306   -0.1451 C   0  0  0  0  0  0  0  0  0  0  0  0
    4.7860    0.9967   -0.1524 C   0  0  0  0  0  0  0  0  0  0  0  0
    6.9411   -2.1734   -0.2117 C   0  0  0  0  0  0  0  0  0  0  0  0
    7.6672   -1.9346    0.9207 F   0  0  0  0  0  0  0  0  0  0  0  0
    6.6381   -3.5056   -0.2438 F   0  0  0  0  0  0  0  0  0  0  0  0
    7.7340   -1.8900   -1.2873 F   0  0  0  0  0  0  0  0  0  0  0  0
    2.0569   -1.1869   -0.4445 N   0  0  0  0  0  0  0  0  0  0  0  0
    1.5254   -2.4248   -0.8330 C   0  0  0  0  0  0  0  0  0  0  0  0
    0.7770   -2.5563   -2.0173 C   0  0  0  0  0  0  0  0  0  0  0  0
    0.2682   -3.8052   -2.3776 C   0  0  0  0  0  0  0  0  0  0  0  0
    0.5126   -4.9226   -1.5984 C   0  0  0  0  0  0  0  0  0  0  0  0
   -0.1027   -6.0084   -2.2057 N   0  0  0  0  0  0  0  0  0  0  0  0
   -0.7374   -5.5853   -3.3753 C   0  0  0  0  0  0  0  0  0  0  0  0
   -0.5268   -4.2291   -3.5112 C   0  0  0  0  0  0  0  0  0  0  0  0
    1.2814   -4.8267   -0.4389 C   0  0  0  0  0  0  0  0  0  0  0  0
    1.7923   -3.5749   -0.0645 C   0  0  0  0  0  0  0  0  0  0  0  0
   -0.5850    0.0833   -2.3163 H   0  0  0  0  0  0  0  0  0  0  0  0
   -0.0849    1.7349   -1.9165 H   0  0  0  0  0  0  0  0  0  0  0  0
   -1.7004    1.1560   -1.4617 H   0  0  0  0  0  0  0  0  0  0  0  0
   -0.4869   -1.2189    1.2177 H   0  0  0  0  0  0  0  0  0  0  0  0
   -1.0175   -1.5940   -0.4363 H   0  0  0  0  0  0  0  0  0  0  0  0
   -1.9534   -0.4821    0.5420 H   0  0  0  0  0  0  0  0  0  0  0  0
   -1.3583    1.7482    0.9527 H   0  0  0  0  0  0  0  0  0  0  0  0
    0.1255    1.2434    1.7885 H   0  0  0  0  0  0  0  0  0  0  0  0
    0.1950    2.4457    0.4857 H   0  0  0  0  0  0  0  0  0  0  0  0
    6.8857    0.5359   -0.0714 H   0  0  0  0  0  0  0  0  0  0  0  0
    4.8897    2.0758   -0.0849 H   0  0  0  0  0  0  0  0  0  0  0  0
    0.6083   -1.7062   -2.6662 H   0  0  0  0  0  0  0  0  0  0  0  0
   -0.0722   -6.9647   -1.8566 H   0  0  0  0  0  0  0  0  0  0  0  0
   -1.2969   -6.2127   -4.0646 H   0  0  0  0  0  0  0  0  0  0  0  0
   -0.8848   -3.5961   -4.3179 H   0  0  0  0  0  0  0  0  0  0  0  0
    1.4909   -5.7057    0.1622 H   0  0  0  0  0  0  0  0  0  0  0  0
    2.4046   -3.4922    0.8293 H   0  0  0  0  0  0  0  0  0  0  0  0
  1  2  1  0
  1 27  1  0
  1 28  1  0
  1 29  1  0
  2  3  1  0
  2  4  1  0
  2  5  1  0
  3 30  1  0
  3 31  1  0
  3 32  1  0
  4 33  1  0
  4 34  1  0
  4 35  1  0
  5  6  2  0
  5 17  1  0
  6  7  1  0
  7  8  2  0
  7 12  1  0
  8  9  1  0
  8 17  1  0
  9 10  2  0
 10 11  1  0
 10 13  1  0
 11 12  2  0
 11 36  1  0
 12 37  1  0
 13 14  1  0
 13 15  1  0
 13 16  1  0
 17 18  1  0
 18 19  2  0
 18 26  1  0
 19 20  1  0
 19 38  1  0
 20 21  2  0
 20 24  1  0
 21 22  1  0
 21 25  1  0
 22 23  1  0
 22 39  1  0
 23 24  2  0
 23 40  1  0
 24 41  1  0
 25 26  2  0
 25 42  1  0
 26 43  1  0
M  END
>  <group_name>  (1) 
JNS

>  <molecule_index>  (1) 
01795

>  <conformer_index>  (1) 
08

>  <method>  (1) 
openff-1.3.0

>  <basis>  (1) 
smirnoff

>  <program>  (1) 
openmm

>  <initial_energy>  (1) 
169.14093512112586 kilocalorie / mole

>  <final_energy>  (1) 
159.64628380983677 kilocalorie / mole

$$$$
