JNS-01795-06
     RDKit          3D

 43 46  0  0  0  0  0  0  0  0999 V2000
   -0.3072    1.8159    0.0022 C   0  0  0  0  0  0  0  0  0  0  0  0
   -0.1243    0.2796    0.0028 C   0  0  0  0  0  0  0  0  0  0  0  0
   -0.7772   -0.2682    1.2838 C   0  0  0  0  0  0  0  0  0  0  0  0
   -0.8903   -0.2353   -1.2343 C   0  0  0  0  0  0  0  0  0  0  0  0
    1.3781   -0.0652   -0.0174 C   0  0  0  0  0  0  0  0  0  0  0  0
    2.2323    0.6926    0.6431 N   0  0  0  0  0  0  0  0  0  0  0  0
    3.4898    0.2277    0.2997 C   0  0  0  0  0  0  0  0  0  0  0  0
    3.4098   -0.8353   -0.5730 C   0  0  0  0  0  0  0  0  0  0  0  0
    4.4787   -1.4780   -1.0842 N   0  0  0  0  0  0  0  0  0  0  0  0
    5.7113   -1.0362   -0.7058 C   0  0  0  0  0  0  0  0  0  0  0  0
    5.8471    0.0536    0.1898 C   0  0  0  0  0  0  0  0  0  0  0  0
    4.7233    0.7022    0.7053 C   0  0  0  0  0  0  0  0  0  0  0  0
    6.9832   -1.7043   -1.2437 C   0  0  0  0  0  0  0  0  0  0  0  0
    7.7016   -2.2303   -0.2079 F   0  0  0  0  0  0  0  0  0  0  0  0
    6.7268   -2.7059   -2.1376 F   0  0  0  0  0  0  0  0  0  0  0  0
    7.7647   -0.7736   -1.8680 F   0  0  0  0  0  0  0  0  0  0  0  0
    2.0615   -1.0676   -0.7385 N   0  0  0  0  0  0  0  0  0  0  0  0
    1.5528   -2.2363   -1.3225 C   0  0  0  0  0  0  0  0  0  0  0  0
    0.7414   -3.1225   -0.5902 C   0  0  0  0  0  0  0  0  0  0  0  0
    0.2574   -4.2807   -1.2007 C   0  0  0  0  0  0  0  0  0  0  0  0
    0.5868   -4.5829   -2.5106 C   0  0  0  0  0  0  0  0  0  0  0  0
   -0.0238   -5.7859   -2.8367 N   0  0  0  0  0  0  0  0  0  0  0  0
   -0.7407   -6.2542   -1.7337 C   0  0  0  0  0  0  0  0  0  0  0  0
   -0.5871   -5.3477   -0.7057 C   0  0  0  0  0  0  0  0  0  0  0  0
    1.4184   -3.7400   -3.2473 C   0  0  0  0  0  0  0  0  0  0  0  0
    1.9052   -2.5703   -2.6450 C   0  0  0  0  0  0  0  0  0  0  0  0
    0.1804    2.2578   -0.8729 H   0  0  0  0  0  0  0  0  0  0  0  0
   -1.3676    2.0866   -0.0189 H   0  0  0  0  0  0  0  0  0  0  0  0
    0.1292    2.2650    0.9005 H   0  0  0  0  0  0  0  0  0  0  0  0
   -0.7297   -1.3581    1.3171 H   0  0  0  0  0  0  0  0  0  0  0  0
   -0.2665    0.1239    2.1696 H   0  0  0  0  0  0  0  0  0  0  0  0
   -1.8306    0.0249    1.3355 H   0  0  0  0  0  0  0  0  0  0  0  0
   -0.9904   -1.3218   -1.2259 H   0  0  0  0  0  0  0  0  0  0  0  0
   -1.9064    0.1713   -1.2592 H   0  0  0  0  0  0  0  0  0  0  0  0
   -0.3773    0.0641   -2.1541 H   0  0  0  0  0  0  0  0  0  0  0  0
    6.8392    0.3884    0.4772 H   0  0  0  0  0  0  0  0  0  0  0  0
    4.7921    1.5418    1.3908 H   0  0  0  0  0  0  0  0  0  0  0  0
    0.5046   -2.9306    0.4488 H   0  0  0  0  0  0  0  0  0  0  0  0
    0.0611   -6.2564   -3.7360 H   0  0  0  0  0  0  0  0  0  0  0  0
   -1.3168   -7.1749   -1.6869 H   0  0  0  0  0  0  0  0  0  0  0  0
   -1.0142   -5.4200    0.2903 H   0  0  0  0  0  0  0  0  0  0  0  0
    1.6941   -3.9861   -4.2677 H   0  0  0  0  0  0  0  0  0  0  0  0
    2.5656   -1.9144   -3.2056 H   0  0  0  0  0  0  0  0  0  0  0  0
  1  2  1  0
  1 27  1  0
  1 28  1  0
  1 29  1  0
  2  3  1  0
  2  4  1  0
  2  5  1  0
  3 30  1  0
  3 31  1  0
  3 32  1  0
  4 33  1  0
  4 34  1  0
  4 35  1  0
  5  6  2  0
  5 17  1  0
  6  7  1  0
  7  8  2  0
  7 12  1  0
  8  9  1  0
  8 17  1  0
  9 10  2  0
 10 11  1  0
 10 13  1  0
 11 12  2  0
 11 36  1  0
 12 37  1  0
 13 14  1  0
 13 15  1  0
 13 16  1  0
 17 18  1  0
 18 19  2  0
 18 26  1  0
 19 20  1  0
 19 38  1  0
 20 21  2  0
 20 24  1  0
 21 22  1  0
 21 25  1  0
 22 23  1  0
 22 39  1  0
 23 24  2  0
 23 40  1  0
 24 41  1  0
 25 26  2  0
 25 42  1  0
 26 43  1  0
M  END
>  <group_name>  (1) 
JNS

>  <molecule_index>  (1) 
01795

>  <conformer_index>  (1) 
06

>  <method>  (1) 
openff-1.3.0

>  <basis>  (1) 
smirnoff

>  <program>  (1) 
openmm

>  <initial_energy>  (1) 
169.14810977453 kilocalorie / mole

>  <final_energy>  (1) 
159.64626340146802 kilocalorie / mole

$$$$
