JNS-01658-01
     RDKit          3D

 38 41  0  0  0  0  0  0  0  0999 V2000
   -0.2246   -2.1633    1.8676 C   0  0  0  0  0  0  0  0  0  0  0  0
   -0.6724   -0.8710    1.2441 C   0  0  0  0  0  0  0  0  0  0  0  0
   -1.9317   -0.5134    1.3188 N   0  0  0  0  0  0  0  0  0  0  0  0
   -2.0151    0.6407    0.5573 C   0  0  0  0  0  0  0  0  0  0  0  0
   -0.7913    0.9823    0.0125 C   0  0  0  0  0  0  0  0  0  0  0  0
   -0.5947    2.0642   -0.7676 N   0  0  0  0  0  0  0  0  0  0  0  0
   -1.6742    2.8536   -1.0327 C   0  0  0  0  0  0  0  0  0  0  0  0
   -2.9487    2.5405   -0.5003 C   0  0  0  0  0  0  0  0  0  0  0  0
   -3.1310    1.4183    0.3092 C   0  0  0  0  0  0  0  0  0  0  0  0
   -1.5360    4.0968   -1.9211 C   0  0  0  0  0  0  0  0  0  0  0  0
   -0.2778    4.2488   -2.4331 F   0  0  0  0  0  0  0  0  0  0  0  0
   -2.4094    4.0157   -2.9682 F   0  0  0  0  0  0  0  0  0  0  0  0
   -1.8433    5.2150   -1.1999 F   0  0  0  0  0  0  0  0  0  0  0  0
    0.0911    0.0230    0.4762 N   0  0  0  0  0  0  0  0  0  0  0  0
    1.4877    0.0193    0.2820 C   0  0  0  0  0  0  0  0  0  0  0  0
    2.3651   -0.3869    1.3072 C   0  0  0  0  0  0  0  0  0  0  0  0
    3.7435   -0.3809    1.0859 C   0  0  0  0  0  0  0  0  0  0  0  0
    4.2671    0.0347   -0.1267 C   0  0  0  0  0  0  0  0  0  0  0  0
    5.6465   -0.0429   -0.0815 N   0  0  0  0  0  0  0  0  0  0  0  0
    6.0254   -0.3946    1.1809 C   0  0  0  0  0  0  0  0  0  0  0  0
    7.1818   -0.2751    1.5615 O   0  0  0  0  0  0  0  0  0  0  0  0
    4.8326   -0.7402    2.0631 C   0  0  0  0  0  0  0  0  0  0  0  0
    3.4324    0.4719   -1.1580 C   0  0  0  0  0  0  0  0  0  0  0  0
    4.0028    0.9278   -2.4780 C   0  0  0  0  0  0  0  0  0  0  0  0
    2.0434    0.4547   -0.9414 C   0  0  0  0  0  0  0  0  0  0  0  0
    0.7039   -2.5182    1.4145 H   0  0  0  0  0  0  0  0  0  0  0  0
   -0.9942   -2.9263    1.7207 H   0  0  0  0  0  0  0  0  0  0  0  0
   -0.0811   -2.0224    2.9419 H   0  0  0  0  0  0  0  0  0  0  0  0
   -3.7944    3.1836   -0.7251 H   0  0  0  0  0  0  0  0  0  0  0  0
   -4.0944    1.1508    0.7340 H   0  0  0  0  0  0  0  0  0  0  0  0
    1.9934   -0.6766    2.2843 H   0  0  0  0  0  0  0  0  0  0  0  0
    6.2482    0.5789   -0.6097 H   0  0  0  0  0  0  0  0  0  0  0  0
    4.8266   -1.8035    2.3123 H   0  0  0  0  0  0  0  0  0  0  0  0
    4.8117   -0.1136    2.9577 H   0  0  0  0  0  0  0  0  0  0  0  0
    3.2119    1.0484   -3.2246 H   0  0  0  0  0  0  0  0  0  0  0  0
    4.7201    0.1921   -2.8542 H   0  0  0  0  0  0  0  0  0  0  0  0
    4.5110    1.8885   -2.3529 H   0  0  0  0  0  0  0  0  0  0  0  0
    1.3882    0.7796   -1.7443 H   0  0  0  0  0  0  0  0  0  0  0  0
  1  2  1  0
  1 26  1  0
  1 27  1  0
  1 28  1  0
  2  3  2  0
  2 14  1  0
  3  4  1  0
  4  5  2  0
  4  9  1  0
  5  6  1  0
  5 14  1  0
  6  7  2  0
  7  8  1  0
  7 10  1  0
  8  9  2  0
  8 29  1  0
  9 30  1  0
 10 11  1  0
 10 12  1  0
 10 13  1  0
 14 15  1  0
 15 16  2  0
 15 25  1  0
 16 17  1  0
 16 31  1  0
 17 18  2  0
 17 22  1  0
 18 19  1  0
 18 23  1  0
 19 20  1  0
 19 32  1  0
 20 21  2  0
 20 22  1  0
 22 33  1  0
 22 34  1  0
 23 24  1  0
 23 25  2  0
 24 35  1  0
 24 36  1  0
 24 37  1  0
 25 38  1  0
M  END
>  <group_name>  (1) 
JNS

>  <molecule_index>  (1) 
01658

>  <conformer_index>  (1) 
01

>  <method>  (1) 
openff-1.3.0

>  <basis>  (1) 
smirnoff

>  <program>  (1) 
openmm

>  <initial_energy>  (1) 
83.06253999072888 kilocalorie / mole

>  <final_energy>  (1) 
71.2762128451626 kilocalorie / mole

$$$$
