JNS-02239-08
     RDKit          3D

 53 57  0  0  0  0  0  0  0  0999 V2000
   -3.4070    1.2110   -0.9985 C   0  0  0  0  0  0  0  0  0  0  0  0
   -2.2267    0.5710   -0.4209 N   0  0  0  0  0  0  0  0  0  0  0  0
   -0.9216    0.9822   -0.6354 C   0  0  0  0  0  0  0  0  0  0  0  0
   -0.1308    0.1127    0.0678 C   0  0  0  0  0  0  0  0  0  0  0  0
   -1.0480   -0.8299    0.6683 C   0  0  0  0  0  0  0  0  0  0  0  0
   -2.2873   -0.5272    0.3705 N   0  0  0  0  0  0  0  0  0  0  0  0
    1.3217    0.0164    0.2005 C   0  0  0  0  0  0  0  0  0  0  0  0
    2.1777    1.1170    0.1272 C   0  0  0  0  0  0  0  0  0  0  0  0
    1.6763    2.5574   -0.0098 C   0  0  0  0  0  0  0  0  0  0  0  0
    2.7271    3.5723    0.4636 C   0  0  1  0  0  0  0  0  0  0  0  0
    2.9513    3.4491    1.9959 C   0  0  0  0  0  0  0  0  0  0  0  0
    4.4387    3.3803    2.3730 C   0  0  0  0  0  0  0  0  0  0  0  0
    5.2098    2.3182    1.5544 C   0  0  0  0  0  0  0  0  0  0  0  0
    4.5763    1.9948    0.1813 C   0  0  2  0  0  0  0  0  0  0  0  0
    3.9345    3.2259   -0.2866 N   0  0  0  0  0  0  0  0  0  0  0  0
    4.4312    4.0321   -1.3028 C   0  0  0  0  0  0  0  0  0  0  0  0
    3.9587    5.1538   -1.4663 O   0  0  0  0  0  0  0  0  0  0  0  0
    5.5420    3.6370   -2.1773 C   0  0  0  0  0  0  0  0  0  0  0  0
    6.6469    4.4780   -2.3338 C   0  0  0  0  0  0  0  0  0  0  0  0
    7.6940    4.1121   -3.1768 C   0  0  0  0  0  0  0  0  0  0  0  0
    7.6964    2.9626   -3.8736 N   0  0  0  0  0  0  0  0  0  0  0  0
    6.6158    2.1342   -3.7710 C   0  0  0  0  0  0  0  0  0  0  0  0
    5.5175    2.4565   -2.9347 C   0  0  0  0  0  0  0  0  0  0  0  0
    4.4283    1.6433   -2.8787 F   0  0  0  0  0  0  0  0  0  0  0  0
    6.5732    0.8268   -4.5688 C   0  0  0  0  0  0  0  0  0  0  0  0
    7.7036    0.6312   -5.3110 F   0  0  0  0  0  0  0  0  0  0  0  0
    5.5122    0.8312   -5.4283 F   0  0  0  0  0  0  0  0  0  0  0  0
    6.4524   -0.2360   -3.7199 F   0  0  0  0  0  0  0  0  0  0  0  0
    3.5498    0.8661    0.2566 C   0  0  0  0  0  0  0  0  0  0  0  0
    4.0118   -0.3734    0.4153 N   0  0  0  0  0  0  0  0  0  0  0  0
    3.1230   -1.3665    0.4755 C   0  0  0  0  0  0  0  0  0  0  0  0
    3.6454   -2.7507    0.6977 C   0  0  0  0  0  0  0  0  0  0  0  0
    1.8023   -1.2083    0.4020 N   0  0  0  0  0  0  0  0  0  0  0  0
   -3.9552    0.4902   -1.6116 H   0  0  0  0  0  0  0  0  0  0  0  0
   -3.1138    2.0563   -1.6270 H   0  0  0  0  0  0  0  0  0  0  0  0
   -4.0591    1.5745   -0.1994 H   0  0  0  0  0  0  0  0  0  0  0  0
   -0.6061    1.8099   -1.2620 H   0  0  0  0  0  0  0  0  0  0  0  0
   -0.7534   -1.6720    1.2884 H   0  0  0  0  0  0  0  0  0  0  0  0
    0.7620    2.7056    0.5734 H   0  0  0  0  0  0  0  0  0  0  0  0
    1.4481    2.7566   -1.0617 H   0  0  0  0  0  0  0  0  0  0  0  0
    2.3884    4.5897    0.2409 H   0  0  0  0  0  0  0  0  0  0  0  0
    2.4804    4.2996    2.4984 H   0  0  0  0  0  0  0  0  0  0  0  0
    2.4643    2.5494    2.3858 H   0  0  0  0  0  0  0  0  0  0  0  0
    4.5489    3.1807    3.4436 H   0  0  0  0  0  0  0  0  0  0  0  0
    4.8834    4.3620    2.1776 H   0  0  0  0  0  0  0  0  0  0  0  0
    5.3121    1.3949    2.1342 H   0  0  0  0  0  0  0  0  0  0  0  0
    6.2223    2.7003    1.3911 H   0  0  0  0  0  0  0  0  0  0  0  0
    5.3685    1.6494   -0.4862 H   0  0  0  0  0  0  0  0  0  0  0  0
    6.6941    5.4250   -1.8032 H   0  0  0  0  0  0  0  0  0  0  0  0
    8.5443    4.7809   -3.2757 H   0  0  0  0  0  0  0  0  0  0  0  0
    3.8838   -3.2082   -0.2654 H   0  0  0  0  0  0  0  0  0  0  0  0
    2.8952   -3.3614    1.2072 H   0  0  0  0  0  0  0  0  0  0  0  0
    4.5491   -2.7183    1.3121 H   0  0  0  0  0  0  0  0  0  0  0  0
  1  2  1  0
  1 34  1  0
  1 35  1  0
  1 36  1  0
  2  3  1  0
  2  6  1  0
  3  4  2  0
  3 37  1  0
  4  5  1  0
  4  7  1  0
  5  6  2  0
  5 38  1  0
  7  8  1  0
  7 33  2  0
  8  9  1  0
  8 29  2  0
  9 10  1  0
  9 39  1  0
  9 40  1  0
 10 11  1  0
 10 15  1  0
 10 41  1  1
 11 12  1  0
 11 42  1  0
 11 43  1  0
 12 13  1  0
 12 44  1  0
 12 45  1  0
 13 14  1  0
 13 46  1  0
 13 47  1  0
 14 15  1  0
 14 29  1  0
 14 48  1  6
 15 16  1  0
 16 17  2  0
 16 18  1  0
 18 19  2  0
 18 23  1  0
 19 20  1  0
 19 49  1  0
 20 21  2  0
 20 50  1  0
 21 22  1  0
 22 23  2  0
 22 25  1  0
 23 24  1  0
 25 26  1  0
 25 27  1  0
 25 28  1  0
 29 30  1  0
 30 31  2  0
 31 32  1  0
 31 33  1  0
 32 51  1  0
 32 52  1  0
 32 53  1  0
M  END
>  <group_name>  (1) 
JNS

>  <molecule_index>  (1) 
02239

>  <conformer_index>  (1) 
08

>  <method>  (1) 
openff-1.3.0

>  <basis>  (1) 
smirnoff

>  <program>  (1) 
openmm

>  <initial_energy>  (1) 
27.92500154756115 kilocalorie / mole

>  <final_energy>  (1) 
16.62813460215628 kilocalorie / mole

$$$$
