JNS-00690-05
     RDKit          3D

 38 42  0  0  0  0  0  0  0  0999 V2000
   -1.1584   -0.0610    0.4713 O   0  0  0  0  0  0  0  0  0  0  0  0
   -0.1814   -0.9238   -0.1324 C   0  0  0  0  0  0  0  0  0  0  0  0
   -0.6066   -2.3803   -0.2780 C   0  0  0  0  0  0  0  0  0  0  0  0
   -0.6245   -1.4617   -1.4917 C   0  0  0  0  0  0  0  0  0  0  0  0
    1.3040   -0.6353    0.1114 C   0  0  0  0  0  0  0  0  0  0  0  0
    2.1869   -0.7720   -0.8551 N   0  0  0  0  0  0  0  0  0  0  0  0
    3.3884   -0.3603   -0.3094 C   0  0  0  0  0  0  0  0  0  0  0  0
    3.2421    0.0327    1.0059 C   0  0  0  0  0  0  0  0  0  0  0  0
    4.2639    0.4751    1.7677 N   0  0  0  0  0  0  0  0  0  0  0  0
    5.4997    0.5369    1.1955 C   0  0  0  0  0  0  0  0  0  0  0  0
    5.6935    0.1471   -0.1516 C   0  0  0  0  0  0  0  0  0  0  0  0
    4.6258   -0.3109   -0.9239 C   0  0  0  0  0  0  0  0  0  0  0  0
    6.7084    1.0410    1.9946 C   0  0  0  0  0  0  0  0  0  0  0  0
    6.3727    1.4896    3.2412 F   0  0  0  0  0  0  0  0  0  0  0  0
    7.3080    2.0704    1.3258 F   0  0  0  0  0  0  0  0  0  0  0  0
    7.6224    0.0356    2.1303 F   0  0  0  0  0  0  0  0  0  0  0  0
    1.9030   -0.1663    1.2988 N   0  0  0  0  0  0  0  0  0  0  0  0
    1.3056    0.0084    2.5678 C   0  0  0  0  0  0  0  0  0  0  0  0
    1.7482    1.0295    3.4366 C   0  0  0  0  0  0  0  0  0  0  0  0
    1.1497    1.1897    4.6899 C   0  0  0  0  0  0  0  0  0  0  0  0
    0.1365    0.3683    5.1020 C   0  0  0  0  0  0  0  0  0  0  0  0
   -0.2129    0.8076    6.3682 N   0  0  0  0  0  0  0  0  0  0  0  0
    0.5451    1.8720    6.7621 N   0  0  0  0  0  0  0  0  0  0  0  0
    1.3740    2.1199    5.7740 C   0  0  0  0  0  0  0  0  0  0  0  0
   -0.3209   -0.6599    4.2804 C   0  0  0  0  0  0  0  0  0  0  0  0
    0.2688   -0.8395    3.0201 C   0  0  0  0  0  0  0  0  0  0  0  0
   -0.8570    0.8649    0.4583 H   0  0  0  0  0  0  0  0  0  0  0  0
   -1.5741   -2.6674    0.1452 H   0  0  0  0  0  0  0  0  0  0  0  0
    0.1760   -3.1442   -0.2314 H   0  0  0  0  0  0  0  0  0  0  0  0
   -1.6008   -1.1413   -1.8679 H   0  0  0  0  0  0  0  0  0  0  0  0
    0.1348   -1.6238   -2.2633 H   0  0  0  0  0  0  0  0  0  0  0  0
    6.6864    0.2050   -0.5876 H   0  0  0  0  0  0  0  0  0  0  0  0
    4.7398   -0.6190   -1.9594 H   0  0  0  0  0  0  0  0  0  0  0  0
    2.5444    1.7086    3.1470 H   0  0  0  0  0  0  0  0  0  0  0  0
   -0.9447    0.3809    6.9369 H   0  0  0  0  0  0  0  0  0  0  0  0
    2.1190    2.9101    5.7713 H   0  0  0  0  0  0  0  0  0  0  0  0
   -1.1189   -1.3177    4.6103 H   0  0  0  0  0  0  0  0  0  0  0  0
   -0.0857   -1.6600    2.4068 H   0  0  0  0  0  0  0  0  0  0  0  0
  1  2  1  0
  1 27  1  0
  2  3  1  0
  2  4  1  0
  2  5  1  0
  3  4  1  0
  3 28  1  0
  3 29  1  0
  4 30  1  0
  4 31  1  0
  5  6  2  0
  5 17  1  0
  6  7  1  0
  7  8  2  0
  7 12  1  0
  8  9  1  0
  8 17  1  0
  9 10  2  0
 10 11  1  0
 10 13  1  0
 11 12  2  0
 11 32  1  0
 12 33  1  0
 13 14  1  0
 13 15  1  0
 13 16  1  0
 17 18  1  0
 18 19  2  0
 18 26  1  0
 19 20  1  0
 19 34  1  0
 20 21  2  0
 20 24  1  0
 21 22  1  0
 21 25  1  0
 22 23  1  0
 22 35  1  0
 23 24  2  0
 24 36  1  0
 25 26  2  0
 25 37  1  0
 26 38  1  0
M  END
>  <group_name>  (1) 
JNS

>  <molecule_index>  (1) 
00690

>  <conformer_index>  (1) 
05

>  <method>  (1) 
openff-1.3.0

>  <basis>  (1) 
smirnoff

>  <program>  (1) 
openmm

>  <initial_energy>  (1) 
195.77151260992065 kilocalorie / mole

>  <final_energy>  (1) 
181.9042549123185 kilocalorie / mole

$$$$
