JNS-01554-08
     RDKit          3D

 35 38  0  0  0  0  0  0  0  0999 V2000
   -0.8418    0.3387    0.9070 F   0  0  0  0  0  0  0  0  0  0  0  0
   -0.0723   -0.4951    0.1497 C   0  0  0  0  0  0  0  0  0  0  0  0
   -0.5219   -0.4850   -1.1384 F   0  0  0  0  0  0  0  0  0  0  0  0
    1.3449   -0.1194    0.2423 N   0  0  0  0  0  0  0  0  0  0  0  0
    2.2221   -0.8511    0.9851 N   0  0  0  0  0  0  0  0  0  0  0  0
    3.4001   -0.3941    0.6585 C   0  0  0  0  0  0  0  0  0  0  0  0
    4.6243   -0.8190    1.1466 C   0  0  0  0  0  0  0  0  0  0  0  0
    5.7575   -0.1771    0.6479 C   0  0  0  0  0  0  0  0  0  0  0  0
    5.6434    0.8582   -0.3108 C   0  0  0  0  0  0  0  0  0  0  0  0
    4.4228    1.2531   -0.7715 N   0  0  0  0  0  0  0  0  0  0  0  0
    3.3379    0.6229   -0.2807 C   0  0  0  0  0  0  0  0  0  0  0  0
    2.0103    0.8227   -0.5536 C   0  0  0  0  0  0  0  0  0  0  0  0
    1.4564    1.8149   -1.4929 C   0  0  0  0  0  0  0  0  0  0  0  0
    2.0926    2.0487   -2.7307 C   0  0  0  0  0  0  0  0  0  0  0  0
    1.5873    2.9837   -3.6453 C   0  0  0  0  0  0  0  0  0  0  0  0
    2.3886    3.2532   -5.1709 Cl  0  0  0  0  0  0  0  0  0  0  0  0
    0.4321    3.6894   -3.3061 C   0  0  0  0  0  0  0  0  0  0  0  0
   -0.2491    4.6550   -4.0216 N   0  0  0  0  0  0  0  0  0  0  0  0
   -1.2405    5.1671   -3.2378 C   0  0  0  0  0  0  0  0  0  0  0  0
   -1.8235    6.2033   -3.5243 O   0  0  0  0  0  0  0  0  0  0  0  0
   -1.3778    4.4099   -1.9224 C   0  0  0  0  0  0  0  0  0  0  0  0
   -0.1943    3.4900   -2.0866 C   0  0  0  0  0  0  0  0  0  0  0  0
    0.3080    2.5626   -1.1700 C   0  0  0  0  0  0  0  0  0  0  0  0
    6.9244    1.5232   -0.8250 C   0  0  0  0  0  0  0  0  0  0  0  0
    6.6887    2.4691   -1.7830 F   0  0  0  0  0  0  0  0  0  0  0  0
    7.7523    0.5777   -1.3606 F   0  0  0  0  0  0  0  0  0  0  0  0
    7.5823    2.1204    0.2123 F   0  0  0  0  0  0  0  0  0  0  0  0
   -0.1716   -1.5126    0.5381 H   0  0  0  0  0  0  0  0  0  0  0  0
    4.6894   -1.6149    1.8837 H   0  0  0  0  0  0  0  0  0  0  0  0
    6.7413   -0.4731    0.9988 H   0  0  0  0  0  0  0  0  0  0  0  0
    2.9923    1.4984   -2.9933 H   0  0  0  0  0  0  0  0  0  0  0  0
    0.2026    5.2523   -4.7059 H   0  0  0  0  0  0  0  0  0  0  0  0
   -2.3223    3.8624   -1.8852 H   0  0  0  0  0  0  0  0  0  0  0  0
   -1.2664    5.0839   -1.0698 H   0  0  0  0  0  0  0  0  0  0  0  0
   -0.1813    2.4492   -0.2085 H   0  0  0  0  0  0  0  0  0  0  0  0
  1  2  1  0
  2  3  1  0
  2  4  1  0
  2 28  1  0
  4  5  1  0
  4 12  1  0
  5  6  2  0
  6  7  1  0
  6 11  1  0
  7  8  2  0
  7 29  1  0
  8  9  1  0
  8 30  1  0
  9 10  2  0
  9 24  1  0
 10 11  1  0
 11 12  2  0
 12 13  1  0
 13 14  2  0
 13 23  1  0
 14 15  1  0
 14 31  1  0
 15 16  1  0
 15 17  2  0
 17 18  1  0
 17 22  1  0
 18 19  1  0
 18 32  1  0
 19 20  2  0
 19 21  1  0
 21 22  1  0
 21 33  1  0
 21 34  1  0
 22 23  2  0
 23 35  1  0
 24 25  1  0
 24 26  1  0
 24 27  1  0
M  END
>  <group_name>  (1) 
JNS

>  <molecule_index>  (1) 
01554

>  <conformer_index>  (1) 
08

>  <method>  (1) 
openff-1.3.0

>  <basis>  (1) 
smirnoff

>  <program>  (1) 
openmm

>  <initial_energy>  (1) 
105.01979193269075 kilocalorie / mole

>  <final_energy>  (1) 
91.46931324500133 kilocalorie / mole

$$$$
