JNS-01564-04
     RDKit          3D

 45 49  0  0  0  0  0  0  0  0999 V2000
   -2.8486    1.1042    2.3573 C   0  0  0  0  0  0  0  0  0  0  0  0
   -2.0258    0.5625    1.2149 C   0  0  0  0  0  0  0  0  0  0  0  0
   -2.6391    0.0614    0.0626 C   0  0  0  0  0  0  0  0  0  0  0  0
   -3.9820   -0.0548   -0.2428 N   0  0  0  0  0  0  0  0  0  0  0  0
   -4.1067   -0.7282   -1.4233 C   0  0  0  0  0  0  0  0  0  0  0  0
   -5.1835   -1.1837   -1.7838 O   0  0  0  0  0  0  0  0  0  0  0  0
   -2.7593   -0.9847   -2.0860 C   0  0  0  0  0  0  0  0  0  0  0  0
   -1.8863   -0.4433   -0.9844 C   0  0  0  0  0  0  0  0  0  0  0  0
   -0.4922   -0.4499   -0.9270 C   0  0  0  0  0  0  0  0  0  0  0  0
    0.1582    0.0730    0.2037 C   0  0  0  0  0  0  0  0  0  0  0  0
   -0.6206    0.5632    1.2720 C   0  0  0  0  0  0  0  0  0  0  0  0
    1.6291    0.0856    0.2714 C   0  0  0  0  0  0  0  0  0  0  0  0
    2.4755   -0.9063   -0.1440 C   0  0  0  0  0  0  0  0  0  0  0  0
    2.1957   -2.0975   -0.7065 N   0  0  0  0  0  0  0  0  0  0  0  0
    3.2456   -2.9122   -1.0089 C   0  0  0  0  0  0  0  0  0  0  0  0
    4.5766   -2.5140   -0.7362 C   0  0  0  0  0  0  0  0  0  0  0  0
    4.8480   -1.2781   -0.1504 C   0  0  0  0  0  0  0  0  0  0  0  0
    3.7600   -0.4740    0.1428 C   0  0  0  0  0  0  0  0  0  0  0  0
    3.7810    0.7104    0.6917 N   0  0  0  0  0  0  0  0  0  0  0  0
    2.4738    1.0877    0.7608 N   0  0  0  0  0  0  0  0  0  0  0  0
    2.0473    2.4436    1.1564 C   0  0  0  0  0  0  0  0  0  0  0  0
    1.1409    3.1955    0.1758 C   0  0  0  0  0  0  0  0  0  0  0  0
    2.0109    4.4365    0.3235 C   0  0  0  0  0  0  0  0  0  0  0  0
    3.0700    3.5767    1.0007 C   0  0  0  0  0  0  0  0  0  0  0  0
    3.0094   -4.2792   -1.6602 C   0  0  0  0  0  0  0  0  0  0  0  0
    3.4530   -5.2698   -0.8309 F   0  0  0  0  0  0  0  0  0  0  0  0
    3.7116   -4.3635   -2.8293 F   0  0  0  0  0  0  0  0  0  0  0  0
    1.6934   -4.5173   -1.9440 F   0  0  0  0  0  0  0  0  0  0  0  0
   -3.3552    0.2835    2.8739 H   0  0  0  0  0  0  0  0  0  0  0  0
   -2.2178    1.6331    3.0780 H   0  0  0  0  0  0  0  0  0  0  0  0
   -3.6011    1.8045    1.9818 H   0  0  0  0  0  0  0  0  0  0  0  0
   -4.6940   -0.1973    0.4640 H   0  0  0  0  0  0  0  0  0  0  0  0
   -2.5981   -2.0523   -2.2544 H   0  0  0  0  0  0  0  0  0  0  0  0
   -2.6588   -0.4101   -3.0094 H   0  0  0  0  0  0  0  0  0  0  0  0
    0.0829   -0.8588   -1.7539 H   0  0  0  0  0  0  0  0  0  0  0  0
   -0.1297    0.9301    2.1669 H   0  0  0  0  0  0  0  0  0  0  0  0
    5.3954   -3.1811   -0.9863 H   0  0  0  0  0  0  0  0  0  0  0  0
    5.8612   -0.9530    0.0696 H   0  0  0  0  0  0  0  0  0  0  0  0
    1.6332    2.4330    2.1687 H   0  0  0  0  0  0  0  0  0  0  0  0
    1.1582    2.7855   -0.8403 H   0  0  0  0  0  0  0  0  0  0  0  0
    0.1056    3.3178    0.5096 H   0  0  0  0  0  0  0  0  0  0  0  0
    1.5788    5.1964    0.9833 H   0  0  0  0  0  0  0  0  0  0  0  0
    2.3256    4.8896   -0.6225 H   0  0  0  0  0  0  0  0  0  0  0  0
    3.9048    3.3409    0.3315 H   0  0  0  0  0  0  0  0  0  0  0  0
    3.4537    3.9745    1.9455 H   0  0  0  0  0  0  0  0  0  0  0  0
  1  2  1  0
  1 29  1  0
  1 30  1  0
  1 31  1  0
  2  3  2  0
  2 11  1  0
  3  4  1  0
  3  8  1  0
  4  5  1  0
  4 32  1  0
  5  6  2  0
  5  7  1  0
  7  8  1  0
  7 33  1  0
  7 34  1  0
  8  9  2  0
  9 10  1  0
  9 35  1  0
 10 11  2  0
 10 12  1  0
 11 36  1  0
 12 13  2  0
 12 20  1  0
 13 14  1  0
 13 18  1  0
 14 15  2  0
 15 16  1  0
 15 25  1  0
 16 17  2  0
 16 37  1  0
 17 18  1  0
 17 38  1  0
 18 19  2  0
 19 20  1  0
 20 21  1  0
 21 22  1  0
 21 24  1  0
 21 39  1  0
 22 23  1  0
 22 40  1  0
 22 41  1  0
 23 24  1  0
 23 42  1  0
 23 43  1  0
 24 44  1  0
 24 45  1  0
 25 26  1  0
 25 27  1  0
 25 28  1  0
M  END
>  <group_name>  (1) 
JNS

>  <molecule_index>  (1) 
01564

>  <conformer_index>  (1) 
04

>  <method>  (1) 
openff-1.3.0

>  <basis>  (1) 
smirnoff

>  <program>  (1) 
openmm

>  <initial_energy>  (1) 
140.10579642684843 kilocalorie / mole

>  <final_energy>  (1) 
125.86758444200406 kilocalorie / mole

$$$$
