JNS-01364-02
     RDKit          3D

 34 37  0  0  0  0  0  0  0  0999 V2000
   -1.5103   -2.8840    2.2158 F   0  0  0  0  0  0  0  0  0  0  0  0
   -0.4562   -2.3887    1.5022 C   0  0  0  0  0  0  0  0  0  0  0  0
   -0.0940   -3.3257    0.5783 F   0  0  0  0  0  0  0  0  0  0  0  0
    0.5740   -2.2248    2.3826 F   0  0  0  0  0  0  0  0  0  0  0  0
   -0.8279   -1.0782    0.7966 C   0  0  0  0  0  0  0  0  0  0  0  0
   -2.0618   -0.8325    0.3886 N   0  0  0  0  0  0  0  0  0  0  0  0
   -2.0493    0.4681   -0.0820 C   0  0  0  0  0  0  0  0  0  0  0  0
   -0.7980    1.0344    0.0336 C   0  0  0  0  0  0  0  0  0  0  0  0
   -0.5072    2.2938   -0.3492 N   0  0  0  0  0  0  0  0  0  0  0  0
   -1.5184    3.0417   -0.8748 C   0  0  0  0  0  0  0  0  0  0  0  0
   -2.8211    2.5034   -1.0100 C   0  0  0  0  0  0  0  0  0  0  0  0
   -3.1000    1.1959   -0.6099 C   0  0  0  0  0  0  0  0  0  0  0  0
   -1.2706    4.4871   -1.3249 C   0  0  0  0  0  0  0  0  0  0  0  0
   -2.1300    5.3257   -0.6741 F   0  0  0  0  0  0  0  0  0  0  0  0
    0.0042    4.9108   -1.0733 F   0  0  0  0  0  0  0  0  0  0  0  0
   -1.5037    4.5976   -2.6656 F   0  0  0  0  0  0  0  0  0  0  0  0
    0.0058    0.0397    0.5612 N   0  0  0  0  0  0  0  0  0  0  0  0
    1.4069    0.1274    0.6945 C   0  0  0  0  0  0  0  0  0  0  0  0
    2.2513   -0.9447    0.3366 C   0  0  0  0  0  0  0  0  0  0  0  0
    3.6379   -0.8160    0.4774 C   0  0  0  0  0  0  0  0  0  0  0  0
    4.1969    0.3441    0.9449 C   0  0  0  0  0  0  0  0  0  0  0  0
    5.5653    0.1303    0.9499 N   0  0  0  0  0  0  0  0  0  0  0  0
    5.8835   -1.1184    0.5017 N   0  0  0  0  0  0  0  0  0  0  0  0
    4.7465   -1.7124    0.2085 C   0  0  0  0  0  0  0  0  0  0  0  0
    4.6140   -3.0416   -0.2988 C   0  0  0  0  0  0  0  0  0  0  0  0
    4.4678   -4.1230   -0.7158 N   0  0  0  0  0  0  0  0  0  0  0  0
    3.3957    1.4315    1.2907 C   0  0  0  0  0  0  0  0  0  0  0  0
    2.0038    1.3194    1.1612 C   0  0  0  0  0  0  0  0  0  0  0  0
   -3.6121    3.1171   -1.4312 H   0  0  0  0  0  0  0  0  0  0  0  0
   -4.0880    0.7520   -0.6999 H   0  0  0  0  0  0  0  0  0  0  0  0
    1.8526   -1.8678   -0.0718 H   0  0  0  0  0  0  0  0  0  0  0  0
    6.2508    0.8261    1.2467 H   0  0  0  0  0  0  0  0  0  0  0  0
    3.8363    2.3555    1.6533 H   0  0  0  0  0  0  0  0  0  0  0  0
    1.3855    2.1699    1.4353 H   0  0  0  0  0  0  0  0  0  0  0  0
  1  2  1  0
  2  3  1  0
  2  4  1  0
  2  5  1  0
  5  6  2  0
  5 17  1  0
  6  7  1  0
  7  8  2  0
  7 12  1  0
  8  9  1  0
  8 17  1  0
  9 10  2  0
 10 11  1  0
 10 13  1  0
 11 12  2  0
 11 29  1  0
 12 30  1  0
 13 14  1  0
 13 15  1  0
 13 16  1  0
 17 18  1  0
 18 19  2  0
 18 28  1  0
 19 20  1  0
 19 31  1  0
 20 21  2  0
 20 24  1  0
 21 22  1  0
 21 27  1  0
 22 23  1  0
 22 32  1  0
 23 24  2  0
 24 25  1  0
 25 26  3  0
 27 28  2  0
 27 33  1  0
 28 34  1  0
M  END
>  <group_name>  (1) 
JNS

>  <molecule_index>  (1) 
01364

>  <conformer_index>  (1) 
02

>  <method>  (1) 
openff-1.3.0

>  <basis>  (1) 
smirnoff

>  <program>  (1) 
openmm

>  <initial_energy>  (1) 
206.3725361504488 kilocalorie / mole

>  <final_energy>  (1) 
194.07315366510701 kilocalorie / mole

$$$$
