JNS-01558-05
     RDKit          3D

 42 46  0  0  0  0  0  0  0  0999 V2000
   -0.5817   -0.4947    0.7400 F   0  0  0  0  0  0  0  0  0  0  0  0
    0.0885    0.3797   -0.0695 C   0  0  0  0  0  0  0  0  0  0  0  0
   -0.3483    1.6426    0.2135 F   0  0  0  0  0  0  0  0  0  0  0  0
   -0.2500    0.0974   -1.3627 F   0  0  0  0  0  0  0  0  0  0  0  0
    1.6101    0.3072    0.0974 C   0  0  0  0  0  0  0  0  0  0  0  0
    2.1678   -0.5247    1.0218 N   0  0  0  0  0  0  0  0  0  0  0  0
    3.5122   -0.5491    1.1079 C   0  0  0  0  0  0  0  0  0  0  0  0
    4.3237   -1.2569    1.9541 C   0  0  0  0  0  0  0  0  0  0  0  0
    5.6275   -0.8899    1.5861 N   0  0  0  0  0  0  0  0  0  0  0  0
    5.6060    0.0612    0.6080 N   0  0  0  0  0  0  0  0  0  0  0  0
    4.3437    0.2325    0.3245 C   0  0  0  0  0  0  0  0  0  0  0  0
    3.8100    1.0902   -0.6223 C   0  0  0  0  0  0  0  0  0  0  0  0
    2.4205    1.1186   -0.7322 C   0  0  0  0  0  0  0  0  0  0  0  0
    6.8307   -1.4932    2.0081 C   0  0  0  0  0  0  0  0  0  0  0  0
    8.0318   -0.7574    1.9784 C   0  0  0  0  0  0  0  0  0  0  0  0
    9.2409   -1.3323    2.3872 C   0  0  0  0  0  0  0  0  0  0  0  0
    9.2738   -2.6593    2.8219 C   0  0  0  0  0  0  0  0  0  0  0  0
    8.0981   -3.4134    2.8368 C   0  0  0  0  0  0  0  0  0  0  0  0
    6.8892   -2.8387    2.4269 C   0  0  0  0  0  0  0  0  0  0  0  0
    3.8716   -2.1240    3.0573 C   0  0  0  0  0  0  0  0  0  0  0  0
    2.7653   -2.9820    2.8902 C   0  0  0  0  0  0  0  0  0  0  0  0
    2.3318   -3.8075    3.9378 C   0  0  0  0  0  0  0  0  0  0  0  0
    3.0086   -3.7692    5.1524 C   0  0  0  0  0  0  0  0  0  0  0  0
    2.7636   -4.4766    6.3109 N   0  0  0  0  0  0  0  0  0  0  0  0
    3.6013   -4.0167    7.2854 C   0  0  0  0  0  0  0  0  0  0  0  0
    3.4277   -4.2884    8.4654 O   0  0  0  0  0  0  0  0  0  0  0  0
    4.6144   -3.0130    6.7477 C   0  0  0  0  0  0  0  0  0  0  0  0
    4.0852   -2.9195    5.3397 C   0  0  0  0  0  0  0  0  0  0  0  0
    4.5223   -2.0868    4.3060 C   0  0  0  0  0  0  0  0  0  0  0  0
    4.4516    1.7093   -1.2435 H   0  0  0  0  0  0  0  0  0  0  0  0
    1.9525    1.7734   -1.4604 H   0  0  0  0  0  0  0  0  0  0  0  0
    8.0286    0.2764    1.6417 H   0  0  0  0  0  0  0  0  0  0  0  0
   10.1556   -0.7458    2.3634 H   0  0  0  0  0  0  0  0  0  0  0  0
   10.2129   -3.1066    3.1371 H   0  0  0  0  0  0  0  0  0  0  0  0
    8.1237   -4.4517    3.1570 H   0  0  0  0  0  0  0  0  0  0  0  0
    6.0022   -3.4655    2.4170 H   0  0  0  0  0  0  0  0  0  0  0  0
    2.2376   -3.0092    1.9400 H   0  0  0  0  0  0  0  0  0  0  0  0
    1.4798   -4.4660    3.8001 H   0  0  0  0  0  0  0  0  0  0  0  0
    1.8364   -4.7876    6.5791 H   0  0  0  0  0  0  0  0  0  0  0  0
    5.6260   -3.4235    6.7806 H   0  0  0  0  0  0  0  0  0  0  0  0
    4.5451   -2.0624    7.2817 H   0  0  0  0  0  0  0  0  0  0  0  0
    5.3544   -1.4087    4.4737 H   0  0  0  0  0  0  0  0  0  0  0  0
  1  2  1  0
  2  3  1  0
  2  4  1  0
  2  5  1  0
  5  6  2  0
  5 13  1  0
  6  7  1  0
  7  8  2  0
  7 11  1  0
  8  9  1  0
  8 20  1  0
  9 10  1  0
  9 14  1  0
 10 11  2  0
 11 12  1  0
 12 13  2  0
 12 30  1  0
 13 31  1  0
 14 15  2  0
 14 19  1  0
 15 16  1  0
 15 32  1  0
 16 17  2  0
 16 33  1  0
 17 18  1  0
 17 34  1  0
 18 19  2  0
 18 35  1  0
 19 36  1  0
 20 21  2  0
 20 29  1  0
 21 22  1  0
 21 37  1  0
 22 23  2  0
 22 38  1  0
 23 24  1  0
 23 28  1  0
 24 25  1  0
 24 39  1  0
 25 26  2  0
 25 27  1  0
 27 28  1  0
 27 40  1  0
 27 41  1  0
 28 29  2  0
 29 42  1  0
M  END
>  <group_name>  (1) 
JNS

>  <molecule_index>  (1) 
01558

>  <conformer_index>  (1) 
05

>  <method>  (1) 
openff-1.3.0

>  <basis>  (1) 
smirnoff

>  <program>  (1) 
openmm

>  <initial_energy>  (1) 
131.7569434093403 kilocalorie / mole

>  <final_energy>  (1) 
118.76956644928462 kilocalorie / mole

$$$$
