JNS-01494-02
     RDKit          3D

 42 45  0  0  0  0  0  0  0  0999 V2000
   -0.4924   -1.4462   -0.9260 C   0  0  0  0  0  0  0  0  0  0  0  0
   -0.9045   -0.4459    0.1558 C   0  0  0  0  0  0  0  0  0  0  0  0
    0.1612   -0.2902    1.2583 C   0  0  2  0  0  0  0  0  0  0  0  0
   -0.2928    0.7517    2.2913 C   0  0  0  0  0  0  0  0  0  0  0  0
    1.5774   -0.0152    0.7599 C   0  0  0  0  0  0  0  0  0  0  0  0
    2.4371   -1.0117    0.7383 N   0  0  0  0  0  0  0  0  0  0  0  0
    3.6531   -0.4407    0.3999 C   0  0  0  0  0  0  0  0  0  0  0  0
    3.5348    0.9209    0.2165 C   0  0  0  0  0  0  0  0  0  0  0  0
    4.5601    1.7371   -0.0957 N   0  0  0  0  0  0  0  0  0  0  0  0
    5.7887    1.1648   -0.2427 C   0  0  0  0  0  0  0  0  0  0  0  0
    5.9633   -0.2309   -0.0691 C   0  0  0  0  0  0  0  0  0  0  0  0
    4.8841   -1.0540    0.2590 C   0  0  0  0  0  0  0  0  0  0  0  0
    7.0150    2.0181   -0.5920 C   0  0  0  0  0  0  0  0  0  0  0  0
    7.9837    1.8429    0.3553 F   0  0  0  0  0  0  0  0  0  0  0  0
    7.5251    1.6213   -1.7952 F   0  0  0  0  0  0  0  0  0  0  0  0
    6.7349    3.3538   -0.6646 F   0  0  0  0  0  0  0  0  0  0  0  0
    2.1979    1.1970    0.4014 N   0  0  0  0  0  0  0  0  0  0  0  0
    1.6223    2.4636    0.2355 C   0  0  0  0  0  0  0  0  0  0  0  0
    0.5559    2.6661   -0.6566 C   0  0  0  0  0  0  0  0  0  0  0  0
   -0.0011    3.9417   -0.7887 C   0  0  0  0  0  0  0  0  0  0  0  0
    0.4952    5.0058   -0.0822 C   0  0  0  0  0  0  0  0  0  0  0  0
   -0.2708    6.0970   -0.4572 N   0  0  0  0  0  0  0  0  0  0  0  0
   -1.2241    5.7562   -1.3726 N   0  0  0  0  0  0  0  0  0  0  0  0
   -1.0807    4.4698   -1.5931 C   0  0  0  0  0  0  0  0  0  0  0  0
    1.5796    4.8461    0.7815 C   0  0  0  0  0  0  0  0  0  0  0  0
    2.1454    3.5712    0.9314 C   0  0  0  0  0  0  0  0  0  0  0  0
   -0.2453   -2.4138   -0.4776 H   0  0  0  0  0  0  0  0  0  0  0  0
    0.3775   -1.0823   -1.4816 H   0  0  0  0  0  0  0  0  0  0  0  0
   -1.3146   -1.5906   -1.6334 H   0  0  0  0  0  0  0  0  0  0  0  0
   -1.1358    0.5157   -0.3036 H   0  0  0  0  0  0  0  0  0  0  0  0
   -1.8336   -0.7976    0.6163 H   0  0  0  0  0  0  0  0  0  0  0  0
    0.2044   -1.2486    1.7872 H   0  0  0  0  0  0  0  0  0  0  0  0
    0.4452    0.8318    3.0957 H   0  0  0  0  0  0  0  0  0  0  0  0
   -0.4226    1.7368    1.8351 H   0  0  0  0  0  0  0  0  0  0  0  0
   -1.2493    0.4546    2.7324 H   0  0  0  0  0  0  0  0  0  0  0  0
    6.9515   -0.6644   -0.1907 H   0  0  0  0  0  0  0  0  0  0  0  0
    4.9854   -2.1257    0.4044 H   0  0  0  0  0  0  0  0  0  0  0  0
    0.1895    1.8526   -1.2714 H   0  0  0  0  0  0  0  0  0  0  0  0
   -0.1240    7.0431   -0.1040 H   0  0  0  0  0  0  0  0  0  0  0  0
   -1.6877    3.8865   -2.2789 H   0  0  0  0  0  0  0  0  0  0  0  0
    1.9873    5.6931    1.3243 H   0  0  0  0  0  0  0  0  0  0  0  0
    2.9977    3.4368    1.5919 H   0  0  0  0  0  0  0  0  0  0  0  0
  1  2  1  0
  1 27  1  0
  1 28  1  0
  1 29  1  0
  2  3  1  0
  2 30  1  0
  2 31  1  0
  3  4  1  0
  3  5  1  0
  3 32  1  1
  4 33  1  0
  4 34  1  0
  4 35  1  0
  5  6  2  0
  5 17  1  0
  6  7  1  0
  7  8  2  0
  7 12  1  0
  8  9  1  0
  8 17  1  0
  9 10  2  0
 10 11  1  0
 10 13  1  0
 11 12  2  0
 11 36  1  0
 12 37  1  0
 13 14  1  0
 13 15  1  0
 13 16  1  0
 17 18  1  0
 18 19  2  0
 18 26  1  0
 19 20  1  0
 19 38  1  0
 20 21  2  0
 20 24  1  0
 21 22  1  0
 21 25  1  0
 22 23  1  0
 22 39  1  0
 23 24  2  0
 24 40  1  0
 25 26  2  0
 25 41  1  0
 26 42  1  0
M  END
>  <group_name>  (1) 
JNS

>  <molecule_index>  (1) 
01494

>  <conformer_index>  (1) 
02

>  <method>  (1) 
openff-1.3.0

>  <basis>  (1) 
smirnoff

>  <program>  (1) 
openmm

>  <initial_energy>  (1) 
164.74707089448293 kilocalorie / mole

>  <final_energy>  (1) 
154.37842556551533 kilocalorie / mole

$$$$
