JNS-01356-08
     RDKit          3D

 33 36  0  0  0  0  0  0  0  0999 V2000
    0.6962   -2.7561   -1.2672 F   0  0  0  0  0  0  0  0  0  0  0  0
   -0.3158   -2.6765   -0.3548 C   0  0  0  0  0  0  0  0  0  0  0  0
   -1.3543   -3.4134   -0.8485 F   0  0  0  0  0  0  0  0  0  0  0  0
    0.1018   -3.2605    0.8065 F   0  0  0  0  0  0  0  0  0  0  0  0
   -0.7369   -1.2264   -0.0849 C   0  0  0  0  0  0  0  0  0  0  0  0
   -1.9768   -0.9124    0.2509 N   0  0  0  0  0  0  0  0  0  0  0  0
   -2.0148    0.4698    0.2956 C   0  0  0  0  0  0  0  0  0  0  0  0
   -0.7880    1.0173   -0.0118 C   0  0  0  0  0  0  0  0  0  0  0  0
   -0.5431    2.3417   -0.0392 N   0  0  0  0  0  0  0  0  0  0  0  0
   -1.5794    3.1798    0.2471 C   0  0  0  0  0  0  0  0  0  0  0  0
   -2.8598    2.6639    0.5634 C   0  0  0  0  0  0  0  0  0  0  0  0
   -3.0902    1.2877    0.5911 C   0  0  0  0  0  0  0  0  0  0  0  0
   -1.3854    4.7014    0.2284 C   0  0  0  0  0  0  0  0  0  0  0  0
   -2.2751    5.2674   -0.6396 F   0  0  0  0  0  0  0  0  0  0  0  0
   -1.6258    5.2091    1.4730 F   0  0  0  0  0  0  0  0  0  0  0  0
   -0.1268    5.0721   -0.1523 F   0  0  0  0  0  0  0  0  0  0  0  0
    0.0519   -0.0609   -0.2224 N   0  0  0  0  0  0  0  0  0  0  0  0
    1.4460    0.0336   -0.4098 C   0  0  0  0  0  0  0  0  0  0  0  0
    2.3388   -0.8414    0.2413 C   0  0  0  0  0  0  0  0  0  0  0  0
    3.7107   -0.7113    0.0321 C   0  0  0  0  0  0  0  0  0  0  0  0
    4.2247    0.2650   -0.7907 C   0  0  0  0  0  0  0  0  0  0  0  0
    5.6012    0.1546   -0.8058 N   0  0  0  0  0  0  0  0  0  0  0  0
    5.8484   -0.8483   -0.0134 C   0  0  0  0  0  0  0  0  0  0  0  0
    7.0974   -1.2954    0.2537 O   0  0  0  0  0  0  0  0  0  0  0  0
    4.7404   -1.4383    0.5467 O   0  0  0  0  0  0  0  0  0  0  0  0
    3.3719    1.1656   -1.4395 C   0  0  0  0  0  0  0  0  0  0  0  0
    4.0604    2.5419   -2.5795 Br  0  0  0  0  0  0  0  0  0  0  0  0
    1.9876    1.0420   -1.2381 C   0  0  0  0  0  0  0  0  0  0  0  0
   -3.6715    3.3499    0.7877 H   0  0  0  0  0  0  0  0  0  0  0  0
   -4.0601    0.8596    0.8305 H   0  0  0  0  0  0  0  0  0  0  0  0
    1.9991   -1.6090    0.9269 H   0  0  0  0  0  0  0  0  0  0  0  0
    6.9988   -2.0382    0.8612 H   0  0  0  0  0  0  0  0  0  0  0  0
    1.3310    1.7426   -1.7461 H   0  0  0  0  0  0  0  0  0  0  0  0
  1  2  1  0
  2  3  1  0
  2  4  1  0
  2  5  1  0
  5  6  2  0
  5 17  1  0
  6  7  1  0
  7  8  2  0
  7 12  1  0
  8  9  1  0
  8 17  1  0
  9 10  2  0
 10 11  1  0
 10 13  1  0
 11 12  2  0
 11 29  1  0
 12 30  1  0
 13 14  1  0
 13 15  1  0
 13 16  1  0
 17 18  1  0
 18 19  2  0
 18 28  1  0
 19 20  1  0
 19 31  1  0
 20 21  2  0
 20 25  1  0
 21 22  1  0
 21 26  1  0
 22 23  2  0
 23 24  1  0
 23 25  1  0
 24 32  1  0
 26 27  1  0
 26 28  2  0
 28 33  1  0
M  END
>  <group_name>  (1) 
JNS

>  <molecule_index>  (1) 
01356

>  <conformer_index>  (1) 
08

>  <method>  (1) 
openff-1.3.0

>  <basis>  (1) 
smirnoff

>  <program>  (1) 
openmm

>  <initial_energy>  (1) 
132.77846567427497 kilocalorie / mole

>  <final_energy>  (1) 
120.54272866403919 kilocalorie / mole

$$$$
