JNS-01384-04
     RDKit          3D

 36 39  0  0  0  0  0  0  0  0999 V2000
   -0.5639    1.1092   -0.3365 C   0  0  0  0  0  0  0  0  0  0  0  0
    0.0258    0.4622    0.9207 C   0  0  0  0  0  0  0  0  0  0  0  0
    1.5185    0.2450    0.7938 C   0  0  0  0  0  0  0  0  0  0  0  0
    2.3134    1.2338    0.4533 N   0  0  0  0  0  0  0  0  0  0  0  0
    3.5647    0.6554    0.3197 C   0  0  0  0  0  0  0  0  0  0  0  0
    3.5297   -0.6997    0.5862 C   0  0  0  0  0  0  0  0  0  0  0  0
    4.6103   -1.5033    0.5318 N   0  0  0  0  0  0  0  0  0  0  0  0
    5.7995   -0.9346    0.1840 C   0  0  0  0  0  0  0  0  0  0  0  0
    5.8838    0.4500   -0.1027 C   0  0  0  0  0  0  0  0  0  0  0  0
    4.7532    1.2657   -0.0356 C   0  0  0  0  0  0  0  0  0  0  0  0
    7.0756   -1.7810    0.0890 C   0  0  0  0  0  0  0  0  0  0  0  0
    7.6146   -1.6634   -1.1606 F   0  0  0  0  0  0  0  0  0  0  0  0
    6.8557   -3.1080    0.3307 F   0  0  0  0  0  0  0  0  0  0  0  0
    7.9965   -1.3284    0.9902 F   0  0  0  0  0  0  0  0  0  0  0  0
    2.2181   -0.9655    0.9304 N   0  0  0  0  0  0  0  0  0  0  0  0
    1.7410   -2.1861    1.4432 C   0  0  0  0  0  0  0  0  0  0  0  0
    0.8390   -2.2217    2.5271 C   0  0  0  0  0  0  0  0  0  0  0  0
    0.3859   -3.4479    3.0131 C   0  0  0  0  0  0  0  0  0  0  0  0
    0.8151   -4.6332    2.4629 C   0  0  0  0  0  0  0  0  0  0  0  0
    0.2275   -5.6910    3.1210 N   0  0  0  0  0  0  0  0  0  0  0  0
   -0.5079   -5.1072    4.0217 C   0  0  0  0  0  0  0  0  0  0  0  0
   -1.2179   -5.9060    4.8380 O   0  0  0  0  0  0  0  0  0  0  0  0
   -0.4744   -3.7323    4.0293 O   0  0  0  0  0  0  0  0  0  0  0  0
    1.7206   -4.6376    1.4069 C   0  0  0  0  0  0  0  0  0  0  0  0
    2.1836   -3.4127    0.9009 C   0  0  0  0  0  0  0  0  0  0  0  0
   -0.3759    0.4792   -1.2117 H   0  0  0  0  0  0  0  0  0  0  0  0
   -0.1171    2.0937   -0.5097 H   0  0  0  0  0  0  0  0  0  0  0  0
   -1.6447    1.2364   -0.2221 H   0  0  0  0  0  0  0  0  0  0  0  0
   -0.4876   -0.4876    1.0827 H   0  0  0  0  0  0  0  0  0  0  0  0
   -0.1638    1.1095    1.7817 H   0  0  0  0  0  0  0  0  0  0  0  0
    6.8419    0.8811   -0.3775 H   0  0  0  0  0  0  0  0  0  0  0  0
    4.7837    2.3306   -0.2482 H   0  0  0  0  0  0  0  0  0  0  0  0
    0.5011   -1.3169    3.0198 H   0  0  0  0  0  0  0  0  0  0  0  0
   -0.9822   -6.7946    4.5371 H   0  0  0  0  0  0  0  0  0  0  0  0
    2.0579   -5.5821    0.9920 H   0  0  0  0  0  0  0  0  0  0  0  0
    2.8896   -3.4234    0.0751 H   0  0  0  0  0  0  0  0  0  0  0  0
  1  2  1  0
  1 26  1  0
  1 27  1  0
  1 28  1  0
  2  3  1  0
  2 29  1  0
  2 30  1  0
  3  4  2  0
  3 15  1  0
  4  5  1  0
  5  6  2  0
  5 10  1  0
  6  7  1  0
  6 15  1  0
  7  8  2  0
  8  9  1  0
  8 11  1  0
  9 10  2  0
  9 31  1  0
 10 32  1  0
 11 12  1  0
 11 13  1  0
 11 14  1  0
 15 16  1  0
 16 17  2  0
 16 25  1  0
 17 18  1  0
 17 33  1  0
 18 19  2  0
 18 23  1  0
 19 20  1  0
 19 24  1  0
 20 21  2  0
 21 22  1  0
 21 23  1  0
 22 34  1  0
 24 25  2  0
 24 35  1  0
 25 36  1  0
M  END
>  <group_name>  (1) 
JNS

>  <molecule_index>  (1) 
01384

>  <conformer_index>  (1) 
04

>  <method>  (1) 
openff-1.3.0

>  <basis>  (1) 
smirnoff

>  <program>  (1) 
openmm

>  <initial_energy>  (1) 
84.85758364030627 kilocalorie / mole

>  <final_energy>  (1) 
70.48829242960274 kilocalorie / mole

$$$$
