JNS-02002-02
     RDKit          3D

 38 40  0  0  0  0  0  0  0  0999 V2000
   -0.0926   -0.4056    0.8025 C   0  0  0  0  0  0  0  0  0  0  0  0
    1.3301   -0.1725    0.3868 C   0  0  0  0  0  0  0  0  0  0  0  0
    2.0647   -1.2269    0.0049 N   0  0  0  0  0  0  0  0  0  0  0  0
    3.3497   -1.0219   -0.3813 C   0  0  0  0  0  0  0  0  0  0  0  0
    3.8959    0.2722   -0.3827 C   0  0  0  0  0  0  0  0  0  0  0  0
    3.1449    1.3717    0.0071 C   0  0  0  0  0  0  0  0  0  0  0  0
    1.8374    1.1244    0.3958 C   0  0  0  0  0  0  0  0  0  0  0  0
    3.6805    2.6673    0.0078 N   0  0  0  0  0  0  0  0  0  0  0  0
    2.9598    3.8355    0.5213 C   0  0  0  0  0  0  0  0  0  0  0  0
    4.0493    4.9000    0.5605 C   0  0  0  0  0  0  0  0  0  0  0  0
    5.0013    4.5190   -0.5827 C   0  0  2  0  0  0  0  0  0  0  0  0
    6.3936    5.1713   -0.4488 C   0  0  0  0  0  0  0  0  0  0  0  0
    6.6561    5.8216   -1.7978 C   0  0  0  0  0  0  0  0  0  0  0  0
    5.3044    6.1773   -2.2131 N   0  0  0  0  0  0  0  0  0  0  0  0
    4.4742    5.0050   -1.9445 C   0  0  0  0  0  0  0  0  0  0  0  0
    5.0179    2.9872   -0.5056 C   0  0  0  0  0  0  0  0  0  0  0  0
    4.2387   -2.1938   -0.8251 C   0  0  0  0  0  0  0  0  0  0  0  0
    3.5970   -3.4001   -0.7889 F   0  0  0  0  0  0  0  0  0  0  0  0
    4.6757   -1.9865   -2.1033 F   0  0  0  0  0  0  0  0  0  0  0  0
    5.3367   -2.2753   -0.0155 F   0  0  0  0  0  0  0  0  0  0  0  0
   -0.7621    0.2346    0.2218 H   0  0  0  0  0  0  0  0  0  0  0  0
   -0.2100   -0.1806    1.8658 H   0  0  0  0  0  0  0  0  0  0  0  0
   -0.3736   -1.4493    0.6321 H   0  0  0  0  0  0  0  0  0  0  0  0
    4.9268    0.3873   -0.6927 H   0  0  0  0  0  0  0  0  0  0  0  0
    1.1835    1.9278    0.7081 H   0  0  0  0  0  0  0  0  0  0  0  0
    2.5519    3.6641    1.5228 H   0  0  0  0  0  0  0  0  0  0  0  0
    2.1578    4.1232   -0.1663 H   0  0  0  0  0  0  0  0  0  0  0  0
    3.6351    5.9072    0.4536 H   0  0  0  0  0  0  0  0  0  0  0  0
    4.5786    4.8353    1.5170 H   0  0  0  0  0  0  0  0  0  0  0  0
    7.1809    4.4525   -0.2016 H   0  0  0  0  0  0  0  0  0  0  0  0
    6.3765    5.9445    0.3261 H   0  0  0  0  0  0  0  0  0  0  0  0
    7.0924    5.0964   -2.4938 H   0  0  0  0  0  0  0  0  0  0  0  0
    7.3152    6.6927   -1.7200 H   0  0  0  0  0  0  0  0  0  0  0  0
    4.9777    6.9581   -1.6442 H   0  0  0  0  0  0  0  0  0  0  0  0
    4.6374    4.2467   -2.7183 H   0  0  0  0  0  0  0  0  0  0  0  0
    3.4082    5.2551   -1.9255 H   0  0  0  0  0  0  0  0  0  0  0  0
    5.1967    2.5423   -1.4900 H   0  0  0  0  0  0  0  0  0  0  0  0
    5.7829    2.6387    0.1960 H   0  0  0  0  0  0  0  0  0  0  0  0
  1  2  1  0
  1 21  1  0
  1 22  1  0
  1 23  1  0
  2  3  2  0
  2  7  1  0
  3  4  1  0
  4  5  2  0
  4 17  1  0
  5  6  1  0
  5 24  1  0
  6  7  2  0
  6  8  1  0
  7 25  1  0
  8  9  1  0
  8 16  1  0
  9 10  1  0
  9 26  1  0
  9 27  1  0
 11 10  1  1
 10 28  1  0
 10 29  1  0
 11 12  1  0
 11 15  1  0
 11 16  1  0
 12 13  1  0
 12 30  1  0
 12 31  1  0
 13 14  1  0
 13 32  1  0
 13 33  1  0
 14 15  1  0
 14 34  1  0
 15 35  1  0
 15 36  1  0
 16 37  1  0
 16 38  1  0
 17 18  1  0
 17 19  1  0
 17 20  1  0
M  END
>  <group_name>  (1) 
JNS

>  <molecule_index>  (1) 
02002

>  <conformer_index>  (1) 
02

>  <method>  (1) 
openff-1.3.0

>  <basis>  (1) 
smirnoff

>  <program>  (1) 
openmm

>  <initial_energy>  (1) 
39.259546700852084 kilocalorie / mole

>  <final_energy>  (1) 
30.94034123176653 kilocalorie / mole

$$$$
