JNS-01594-06
     RDKit          3D

 39 42  0  0  0  0  0  0  0  0999 V2000
   -0.5031   -1.4057    0.8040 C   0  0  0  0  0  0  0  0  0  0  0  0
   -0.1361   -0.3546   -0.2535 C   0  0  0  0  0  0  0  0  0  0  0  0
   -0.5467   -0.8512   -1.6468 C   0  0  0  0  0  0  0  0  0  0  0  0
    1.3536   -0.0485   -0.2142 C   0  0  0  0  0  0  0  0  0  0  0  0
    2.2423   -1.0137   -0.3110 N   0  0  0  0  0  0  0  0  0  0  0  0
    3.4663   -0.3970   -0.1200 C   0  0  0  0  0  0  0  0  0  0  0  0
    3.3223    0.9588    0.0957 C   0  0  0  0  0  0  0  0  0  0  0  0
    4.3540    1.7983    0.3155 N   0  0  0  0  0  0  0  0  0  0  0  0
    5.6081    1.2631    0.3250 C   0  0  0  0  0  0  0  0  0  0  0  0
    5.8054   -0.1230    0.1100 C   0  0  0  0  0  0  0  0  0  0  0  0
    4.7226   -0.9740   -0.1169 C   0  0  0  0  0  0  0  0  0  0  0  0
    6.8354    2.1478    0.5790 C   0  0  0  0  0  0  0  0  0  0  0  0
    7.5524    1.6524    1.6309 F   0  0  0  0  0  0  0  0  0  0  0  0
    7.6426    2.1437   -0.5225 F   0  0  0  0  0  0  0  0  0  0  0  0
    6.5072    3.4430    0.8672 F   0  0  0  0  0  0  0  0  0  0  0  0
    1.9647    1.2010    0.0003 N   0  0  0  0  0  0  0  0  0  0  0  0
    1.3602    2.4746    0.0334 C   0  0  0  0  0  0  0  0  0  0  0  0
    1.8304    3.4640    0.9208 C   0  0  0  0  0  0  0  0  0  0  0  0
    1.2242    4.7227    0.9408 C   0  0  0  0  0  0  0  0  0  0  0  0
    0.1814    5.0196    0.1045 C   0  0  0  0  0  0  0  0  0  0  0  0
   -0.1663    6.3294    0.3900 N   0  0  0  0  0  0  0  0  0  0  0  0
    0.6191    6.8613    1.3720 N   0  0  0  0  0  0  0  0  0  0  0  0
    1.4652    5.9182    1.7176 C   0  0  0  0  0  0  0  0  0  0  0  0
   -0.3035    4.0765   -0.8042 C   0  0  0  0  0  0  0  0  0  0  0  0
   -1.7453    4.4988   -1.9890 Br  0  0  0  0  0  0  0  0  0  0  0  0
    0.2994    2.8096   -0.8374 C   0  0  0  0  0  0  0  0  0  0  0  0
   -1.5820   -1.5895    0.8008 H   0  0  0  0  0  0  0  0  0  0  0  0
   -0.2157   -1.0544    1.8001 H   0  0  0  0  0  0  0  0  0  0  0  0
    0.0109   -2.3526    0.6084 H   0  0  0  0  0  0  0  0  0  0  0  0
   -0.7033    0.5482   -0.0180 H   0  0  0  0  0  0  0  0  0  0  0  0
   -0.2986   -0.1065   -2.4088 H   0  0  0  0  0  0  0  0  0  0  0  0
   -1.6246   -1.0374   -1.6831 H   0  0  0  0  0  0  0  0  0  0  0  0
   -0.0238   -1.7814   -1.8933 H   0  0  0  0  0  0  0  0  0  0  0  0
    6.8131   -0.5276    0.1223 H   0  0  0  0  0  0  0  0  0  0  0  0
    4.8389   -2.0410   -0.2844 H   0  0  0  0  0  0  0  0  0  0  0  0
    2.6546    3.2583    1.5981 H   0  0  0  0  0  0  0  0  0  0  0  0
   -0.9145    6.8298   -0.0915 H   0  0  0  0  0  0  0  0  0  0  0  0
    2.2338    6.0214    2.4779 H   0  0  0  0  0  0  0  0  0  0  0  0
   -0.0541    2.0970   -1.5736 H   0  0  0  0  0  0  0  0  0  0  0  0
  1  2  1  0
  1 27  1  0
  1 28  1  0
  1 29  1  0
  2  3  1  0
  2  4  1  0
  2 30  1  0
  3 31  1  0
  3 32  1  0
  3 33  1  0
  4  5  2  0
  4 16  1  0
  5  6  1  0
  6  7  2  0
  6 11  1  0
  7  8  1  0
  7 16  1  0
  8  9  2  0
  9 10  1  0
  9 12  1  0
 10 11  2  0
 10 34  1  0
 11 35  1  0
 12 13  1  0
 12 14  1  0
 12 15  1  0
 16 17  1  0
 17 18  2  0
 17 26  1  0
 18 19  1  0
 18 36  1  0
 19 20  2  0
 19 23  1  0
 20 21  1  0
 20 24  1  0
 21 22  1  0
 21 37  1  0
 22 23  2  0
 23 38  1  0
 24 25  1  0
 24 26  2  0
 26 39  1  0
M  END
>  <group_name>  (1) 
JNS

>  <molecule_index>  (1) 
01594

>  <conformer_index>  (1) 
06

>  <method>  (1) 
openff-1.3.0

>  <basis>  (1) 
smirnoff

>  <program>  (1) 
openmm

>  <initial_energy>  (1) 
157.71470174283073 kilocalorie / mole

>  <final_energy>  (1) 
145.04798489908885 kilocalorie / mole

$$$$
