JNS-01792-04
     RDKit          3D

 40 44  0  0  0  0  0  0  0  0999 V2000
   -0.4323   -0.7131   -1.3071 F   0  0  0  0  0  0  0  0  0  0  0  0
   -0.0878   -0.1859   -0.0946 C   0  0  0  0  0  0  0  0  0  0  0  0
   -0.5951    1.0804   -0.0259 F   0  0  0  0  0  0  0  0  0  0  0  0
   -0.6859   -0.9403    0.8759 F   0  0  0  0  0  0  0  0  0  0  0  0
    1.4404   -0.1403    0.0375 C   0  0  0  0  0  0  0  0  0  0  0  0
    2.0660   -0.7468    1.0845 N   0  0  0  0  0  0  0  0  0  0  0  0
    3.4117   -0.6817    1.1391 C   0  0  0  0  0  0  0  0  0  0  0  0
    4.1744   -0.0197    0.1870 C   0  0  0  0  0  0  0  0  0  0  0  0
    5.5624   -0.1396    0.5608 C   0  0  0  0  0  0  0  0  0  0  0  0
    5.6063   -0.8627    1.7330 C   0  0  0  0  0  0  0  0  0  0  0  0
    6.9017   -1.2763    2.3866 C   0  0  0  0  0  0  0  0  0  0  0  0
    7.1776   -2.7674    2.5501 C   0  0  0  0  0  0  0  0  0  0  0  0
    7.9617   -1.9581    1.5270 C   0  0  0  0  0  0  0  0  0  0  0  0
    4.2884   -1.1951    2.1075 N   0  0  0  0  0  0  0  0  0  0  0  0
    3.9070   -1.9215    3.2559 C   0  0  0  0  0  0  0  0  0  0  0  0
    2.8196   -2.8197    3.2148 C   0  0  0  0  0  0  0  0  0  0  0  0
    2.4592   -3.5350    4.3595 C   0  0  0  0  0  0  0  0  0  0  0  0
    3.1528   -3.3716    5.5443 C   0  0  0  0  0  0  0  0  0  0  0  0
    2.6034   -4.1774    6.5207 N   0  0  0  0  0  0  0  0  0  0  0  0
    1.4922   -4.7828    6.0080 C   0  0  0  0  0  0  0  0  0  0  0  0
    0.6795   -5.3388    6.7344 O   0  0  0  0  0  0  0  0  0  0  0  0
    1.3172   -4.5039    4.5200 C   0  0  0  0  0  0  0  0  0  0  0  0
    4.2187   -2.4824    5.6251 C   0  0  0  0  0  0  0  0  0  0  0  0
    4.5917   -1.7601    4.4812 C   0  0  0  0  0  0  0  0  0  0  0  0
    3.5738    0.6068   -0.8913 C   0  0  0  0  0  0  0  0  0  0  0  0
    2.1841    0.5379   -0.9570 C   0  0  0  0  0  0  0  0  0  0  0  0
    6.4156    0.2452    0.0098 H   0  0  0  0  0  0  0  0  0  0  0  0
    7.2515   -0.6095    3.1809 H   0  0  0  0  0  0  0  0  0  0  0  0
    6.4237   -3.4675    2.1749 H   0  0  0  0  0  0  0  0  0  0  0  0
    7.7034   -3.0891    3.4544 H   0  0  0  0  0  0  0  0  0  0  0  0
    9.0110   -1.7410    1.7500 H   0  0  0  0  0  0  0  0  0  0  0  0
    7.7333   -2.1277    0.4698 H   0  0  0  0  0  0  0  0  0  0  0  0
    2.2564   -2.9741    2.2993 H   0  0  0  0  0  0  0  0  0  0  0  0
    2.5992   -3.9288    7.5033 H   0  0  0  0  0  0  0  0  0  0  0  0
    1.4632   -5.4112    3.9299 H   0  0  0  0  0  0  0  0  0  0  0  0
    0.3493   -4.0397    4.3158 H   0  0  0  0  0  0  0  0  0  0  0  0
    4.7505   -2.3486    6.5617 H   0  0  0  0  0  0  0  0  0  0  0  0
    5.4057   -1.0490    4.5629 H   0  0  0  0  0  0  0  0  0  0  0  0
    4.1605    1.1260   -1.6446 H   0  0  0  0  0  0  0  0  0  0  0  0
    1.6610    1.0123   -1.7819 H   0  0  0  0  0  0  0  0  0  0  0  0
  1  2  1  0
  2  3  1  0
  2  4  1  0
  2  5  1  0
  5  6  2  0
  5 26  1  0
  6  7  1  0
  7  8  2  0
  7 14  1  0
  8  9  1  0
  8 25  1  0
  9 10  2  0
  9 27  1  0
 10 11  1  0
 10 14  1  0
 11 12  1  0
 11 13  1  0
 11 28  1  0
 12 13  1  0
 12 29  1  0
 12 30  1  0
 13 31  1  0
 13 32  1  0
 14 15  1  0
 15 16  2  0
 15 24  1  0
 16 17  1  0
 16 33  1  0
 17 18  2  0
 17 22  1  0
 18 19  1  0
 18 23  1  0
 19 20  1  0
 19 34  1  0
 20 21  2  0
 20 22  1  0
 22 35  1  0
 22 36  1  0
 23 24  2  0
 23 37  1  0
 24 38  1  0
 25 26  2  0
 25 39  1  0
 26 40  1  0
M  END
>  <group_name>  (1) 
JNS

>  <molecule_index>  (1) 
01792

>  <conformer_index>  (1) 
04

>  <method>  (1) 
openff-1.3.0

>  <basis>  (1) 
smirnoff

>  <program>  (1) 
openmm

>  <initial_energy>  (1) 
130.3155661172949 kilocalorie / mole

>  <final_energy>  (1) 
117.99065993797778 kilocalorie / mole

$$$$
