JNS-01082-07
     RDKit          3D

 43 46  0  0  0  0  0  0  0  0999 V2000
    1.0453    0.4604   -3.7983 C   0  0  0  0  0  0  0  0  0  0  0  0
    0.1804    1.1990   -2.7675 C   0  0  2  0  0  0  0  0  0  0  0  0
    0.2633    2.7261   -2.9177 C   0  0  0  0  0  0  0  0  0  0  0  0
   -0.6826    3.3712   -1.9186 C   0  0  0  0  0  0  0  0  0  0  0  0
   -1.1335    2.6874   -0.8273 C   0  0  0  0  0  0  0  0  0  0  0  0
   -0.7128    1.2781   -0.4736 C   0  0  0  0  0  0  0  0  0  0  0  0
    0.4026    0.8696   -1.3457 N   0  0  0  0  0  0  0  0  0  0  0  0
    1.6724    0.7355   -0.7815 C   0  0  0  0  0  0  0  0  0  0  0  0
    2.6789    0.9204   -1.4571 O   0  0  0  0  0  0  0  0  0  0  0  0
    1.8555    0.2529    0.5980 C   0  0  0  0  0  0  0  0  0  0  0  0
    2.7902    0.8422    1.4640 C   0  0  0  0  0  0  0  0  0  0  0  0
    3.5160    1.9152    1.0487 F   0  0  0  0  0  0  0  0  0  0  0  0
    2.9530    0.3325    2.7767 C   0  0  0  0  0  0  0  0  0  0  0  0
    2.2181   -0.7281    3.2245 N   0  0  0  0  0  0  0  0  0  0  0  0
    1.3296   -1.2916    2.3903 C   0  0  0  0  0  0  0  0  0  0  0  0
    1.1231   -0.8355    1.0895 C   0  0  0  0  0  0  0  0  0  0  0  0
    3.9747    0.9996    3.7033 C   0  0  0  0  0  0  0  0  0  0  0  0
    3.6479    2.3106    3.9010 F   0  0  0  0  0  0  0  0  0  0  0  0
    5.2253    0.9300    3.1598 F   0  0  0  0  0  0  0  0  0  0  0  0
    4.0302    0.4034    4.9318 F   0  0  0  0  0  0  0  0  0  0  0  0
   -2.0104    3.4643   -0.1006 N   0  0  0  0  0  0  0  0  0  0  0  0
   -2.1244    4.6089   -0.7257 N   0  0  0  0  0  0  0  0  0  0  0  0
   -1.3318    4.5986   -1.8383 N   0  0  0  0  0  0  0  0  0  0  0  0
   -1.1852    5.7021   -2.7125 C   0  0  0  0  0  0  0  0  0  0  0  0
   -1.9098    6.8156   -2.4657 N   0  0  0  0  0  0  0  0  0  0  0  0
   -1.7650    7.8613   -3.2797 C   0  0  0  0  0  0  0  0  0  0  0  0
   -0.9010    7.8379   -4.3665 C   0  0  0  0  0  0  0  0  0  0  0  0
   -0.7430    8.9176   -5.2173 O   0  0  0  0  0  0  0  0  0  0  0  0
   -0.1930    6.6608   -4.5624 C   0  0  0  0  0  0  0  0  0  0  0  0
   -0.3298    5.6047   -3.7538 N   0  0  0  0  0  0  0  0  0  0  0  0
    1.0399   -0.6144   -3.5945 H   0  0  0  0  0  0  0  0  0  0  0  0
    0.6439    0.6241   -4.8027 H   0  0  0  0  0  0  0  0  0  0  0  0
    2.0778    0.8195   -3.7985 H   0  0  0  0  0  0  0  0  0  0  0  0
   -0.8491    0.9042   -3.0008 H   0  0  0  0  0  0  0  0  0  0  0  0
   -0.0096    3.0069   -3.9388 H   0  0  0  0  0  0  0  0  0  0  0  0
    1.2854    3.0708   -2.7284 H   0  0  0  0  0  0  0  0  0  0  0  0
   -1.5612    0.6001   -0.6058 H   0  0  0  0  0  0  0  0  0  0  0  0
   -0.4453    1.2691    0.5864 H   0  0  0  0  0  0  0  0  0  0  0  0
    0.7509   -2.1394    2.7456 H   0  0  0  0  0  0  0  0  0  0  0  0
    0.3984   -1.3478    0.4637 H   0  0  0  0  0  0  0  0  0  0  0  0
   -2.3454    8.7573   -3.0802 H   0  0  0  0  0  0  0  0  0  0  0  0
   -1.2835    9.6829   -4.9499 H   0  0  0  0  0  0  0  0  0  0  0  0
    0.4950    6.5939   -5.4004 H   0  0  0  0  0  0  0  0  0  0  0  0
  1  2  1  0
  1 31  1  0
  1 32  1  0
  1 33  1  0
  2  3  1  0
  2  7  1  0
  2 34  1  6
  3  4  1  0
  3 35  1  0
  3 36  1  0
  4  5  2  0
  4 23  1  0
  5  6  1  0
  5 21  1  0
  6  7  1  0
  6 37  1  0
  6 38  1  0
  7  8  1  0
  8  9  2  0
  8 10  1  0
 10 11  2  0
 10 16  1  0
 11 12  1  0
 11 13  1  0
 13 14  2  0
 13 17  1  0
 14 15  1  0
 15 16  2  0
 15 39  1  0
 16 40  1  0
 17 18  1  0
 17 19  1  0
 17 20  1  0
 21 22  2  0
 22 23  1  0
 23 24  1  0
 24 25  2  0
 24 30  1  0
 25 26  1  0
 26 27  2  0
 26 41  1  0
 27 28  1  0
 27 29  1  0
 28 42  1  0
 29 30  2  0
 29 43  1  0
M  END
>  <group_name>  (1) 
JNS

>  <molecule_index>  (1) 
01082

>  <conformer_index>  (1) 
07

>  <method>  (1) 
openff-1.3.0

>  <basis>  (1) 
smirnoff

>  <program>  (1) 
openmm

>  <initial_energy>  (1) 
118.65515082971469 kilocalorie / mole

>  <final_energy>  (1) 
108.05295637602691 kilocalorie / mole

$$$$
