JNS-01614-00
     RDKit          3D

 39 42  0  0  0  0  0  0  0  0999 V2000
   -0.6566    0.1844   -0.1037 C   0  0  0  0  0  0  0  0  0  0  0  0
    0.2298   -0.3443    1.0271 C   0  0  0  0  0  0  0  0  0  0  0  0
    1.6860   -0.3846    0.6229 C   0  0  0  0  0  0  0  0  0  0  0  0
    2.5441    0.4065    1.2247 N   0  0  0  0  0  0  0  0  0  0  0  0
    3.7426    0.2029    0.5616 C   0  0  0  0  0  0  0  0  0  0  0  0
    3.6095   -0.7204   -0.4570 C   0  0  0  0  0  0  0  0  0  0  0  0
    4.6204   -1.0981   -1.2652 N   0  0  0  0  0  0  0  0  0  0  0  0
    5.8401   -0.5265   -1.0542 C   0  0  0  0  0  0  0  0  0  0  0  0
    6.0248    0.4260   -0.0222 C   0  0  0  0  0  0  0  0  0  0  0  0
    4.9645    0.8028    0.8035 C   0  0  0  0  0  0  0  0  0  0  0  0
    7.0405   -0.8936   -1.9361 C   0  0  0  0  0  0  0  0  0  0  0  0
    8.0091   -1.4823   -1.1744 F   0  0  0  0  0  0  0  0  0  0  0  0
    7.5689    0.2371   -2.4916 F   0  0  0  0  0  0  0  0  0  0  0  0
    6.7146   -1.7475   -2.9523 F   0  0  0  0  0  0  0  0  0  0  0  0
    2.2903   -1.1301   -0.4059 N   0  0  0  0  0  0  0  0  0  0  0  0
    1.6961   -2.0893   -1.2499 C   0  0  0  0  0  0  0  0  0  0  0  0
    2.0320   -2.1363   -2.6170 C   0  0  0  0  0  0  0  0  0  0  0  0
    1.4280   -3.0828   -3.4471 C   0  0  0  0  0  0  0  0  0  0  0  0
    0.5168   -3.9789   -2.9560 C   0  0  0  0  0  0  0  0  0  0  0  0
    0.1338   -4.7511   -4.0413 N   0  0  0  0  0  0  0  0  0  0  0  0
    0.7695   -4.3707   -5.1874 N   0  0  0  0  0  0  0  0  0  0  0  0
    1.5563   -3.3726   -4.8574 C   0  0  0  0  0  0  0  0  0  0  0  0
    0.1676   -3.9832   -1.6022 C   0  0  0  0  0  0  0  0  0  0  0  0
   -0.8076   -4.9976   -1.0617 C   0  0  0  0  0  0  0  0  0  0  0  0
    0.7736   -3.0373   -0.7558 C   0  0  0  0  0  0  0  0  0  0  0  0
   -1.6979    0.2345    0.2287 H   0  0  0  0  0  0  0  0  0  0  0  0
   -0.3353    1.1890   -0.3970 H   0  0  0  0  0  0  0  0  0  0  0  0
   -0.6048   -0.4693   -0.9795 H   0  0  0  0  0  0  0  0  0  0  0  0
   -0.1092   -1.3322    1.3400 H   0  0  0  0  0  0  0  0  0  0  0  0
    0.1227    0.3147    1.8945 H   0  0  0  0  0  0  0  0  0  0  0  0
    7.0051    0.8688    0.1271 H   0  0  0  0  0  0  0  0  0  0  0  0
    5.0720    1.5308    1.6025 H   0  0  0  0  0  0  0  0  0  0  0  0
    2.7492   -1.4376   -3.0384 H   0  0  0  0  0  0  0  0  0  0  0  0
   -0.5357   -5.5184   -3.9824 H   0  0  0  0  0  0  0  0  0  0  0  0
    2.2077   -2.8410   -5.5447 H   0  0  0  0  0  0  0  0  0  0  0  0
   -0.8521   -4.9544    0.0306 H   0  0  0  0  0  0  0  0  0  0  0  0
   -1.8081   -4.8018   -1.4588 H   0  0  0  0  0  0  0  0  0  0  0  0
   -0.5003   -6.0067   -1.3524 H   0  0  0  0  0  0  0  0  0  0  0  0
    0.5448   -3.0738    0.3018 H   0  0  0  0  0  0  0  0  0  0  0  0
  1  2  1  0
  1 26  1  0
  1 27  1  0
  1 28  1  0
  2  3  1  0
  2 29  1  0
  2 30  1  0
  3  4  2  0
  3 15  1  0
  4  5  1  0
  5  6  2  0
  5 10  1  0
  6  7  1  0
  6 15  1  0
  7  8  2  0
  8  9  1  0
  8 11  1  0
  9 10  2  0
  9 31  1  0
 10 32  1  0
 11 12  1  0
 11 13  1  0
 11 14  1  0
 15 16  1  0
 16 17  2  0
 16 25  1  0
 17 18  1  0
 17 33  1  0
 18 19  2  0
 18 22  1  0
 19 20  1  0
 19 23  1  0
 20 21  1  0
 20 34  1  0
 21 22  2  0
 22 35  1  0
 23 24  1  0
 23 25  2  0
 24 36  1  0
 24 37  1  0
 24 38  1  0
 25 39  1  0
M  END
>  <group_name>  (1) 
JNS

>  <molecule_index>  (1) 
01614

>  <conformer_index>  (1) 
00

>  <method>  (1) 
openff-1.3.0

>  <basis>  (1) 
smirnoff

>  <program>  (1) 
openmm

>  <initial_energy>  (1) 
147.6997835272393 kilocalorie / mole

>  <final_energy>  (1) 
136.41582980463124 kilocalorie / mole

$$$$
