JNS-01358-06
     RDKit          3D

 41 45  0  0  0  0  0  0  0  0999 V2000
   -3.1041    1.8524   -0.7366 F   0  0  0  0  0  0  0  0  0  0  0  0
   -2.3180    0.7743   -0.5068 C   0  0  0  0  0  0  0  0  0  0  0  0
   -2.8876   -0.4412   -0.4448 N   0  0  0  0  0  0  0  0  0  0  0  0
   -2.0794   -1.4919   -0.2289 C   0  0  0  0  0  0  0  0  0  0  0  0
   -0.7007   -1.3687   -0.0466 C   0  0  0  0  0  0  0  0  0  0  0  0
   -0.0918   -0.1118   -0.0802 C   0  0  0  0  0  0  0  0  0  0  0  0
   -0.9452    0.9678   -0.3364 C   0  0  0  0  0  0  0  0  0  0  0  0
    1.3693    0.0424    0.1006 C   0  0  0  0  0  0  0  0  0  0  0  0
    2.1898   -0.9272   -0.2405 N   0  0  0  0  0  0  0  0  0  0  0  0
    3.4583   -0.4043   -0.0546 C   0  0  0  0  0  0  0  0  0  0  0  0
    3.4087    0.8926    0.4181 C   0  0  0  0  0  0  0  0  0  0  0  0
    4.5021    1.6327    0.6898 N   0  0  0  0  0  0  0  0  0  0  0  0
    5.7200    1.0612    0.4708 C   0  0  0  0  0  0  0  0  0  0  0  0
    5.8201   -0.2636   -0.0195 C   0  0  0  0  0  0  0  0  0  0  0  0
    4.6761   -1.0162   -0.2886 C   0  0  0  0  0  0  0  0  0  0  0  0
    7.0123    1.8406    0.7463 C   0  0  0  0  0  0  0  0  0  0  0  0
    7.7397    1.1994    1.7079 F   0  0  0  0  0  0  0  0  0  0  0  0
    7.7684    1.8954   -0.3899 F   0  0  0  0  0  0  0  0  0  0  0  0
    6.7837    3.1214    1.1646 F   0  0  0  0  0  0  0  0  0  0  0  0
    2.0632    1.1740    0.5661 N   0  0  0  0  0  0  0  0  0  0  0  0
    1.5394    2.2708    1.2799 C   0  0  0  0  0  0  0  0  0  0  0  0
    0.4545    2.1095    2.1679 C   0  0  0  0  0  0  0  0  0  0  0  0
   -0.0531    3.2144    2.8564 C   0  0  0  0  0  0  0  0  0  0  0  0
    0.5106    4.4674    2.6932 C   0  0  0  0  0  0  0  0  0  0  0  0
   -0.1517    5.3847    3.4825 N   0  0  0  0  0  0  0  0  0  0  0  0
   -1.0703    4.7201    4.2423 C   0  0  0  0  0  0  0  0  0  0  0  0
   -1.5908    5.2400    5.2193 O   0  0  0  0  0  0  0  0  0  0  0  0
   -1.1768    3.2486    3.8602 C   0  0  0  0  0  0  0  0  0  0  0  0
    1.5983    4.6539    1.8473 C   0  0  0  0  0  0  0  0  0  0  0  0
    2.1103    3.5548    1.1426 C   0  0  0  0  0  0  0  0  0  0  0  0
   -2.5212   -2.4835   -0.1918 H   0  0  0  0  0  0  0  0  0  0  0  0
   -0.1089   -2.2641    0.1200 H   0  0  0  0  0  0  0  0  0  0  0  0
   -0.5680    1.9813   -0.4219 H   0  0  0  0  0  0  0  0  0  0  0  0
    6.8013   -0.6982   -0.1871 H   0  0  0  0  0  0  0  0  0  0  0  0
    4.7191   -2.0346   -0.6645 H   0  0  0  0  0  0  0  0  0  0  0  0
    0.0140    1.1323    2.3415 H   0  0  0  0  0  0  0  0  0  0  0  0
    0.3029    6.1991    3.8805 H   0  0  0  0  0  0  0  0  0  0  0  0
   -0.9860    2.6051    4.7221 H   0  0  0  0  0  0  0  0  0  0  0  0
   -2.1446    3.0345    3.4010 H   0  0  0  0  0  0  0  0  0  0  0  0
    2.0441    5.6369    1.7303 H   0  0  0  0  0  0  0  0  0  0  0  0
    2.9553    3.7106    0.4770 H   0  0  0  0  0  0  0  0  0  0  0  0
  1  2  1  0
  2  3  2  0
  2  7  1  0
  3  4  1  0
  4  5  2  0
  4 31  1  0
  5  6  1  0
  5 32  1  0
  6  7  2  0
  6  8  1  0
  7 33  1  0
  8  9  2  0
  8 20  1  0
  9 10  1  0
 10 11  2  0
 10 15  1  0
 11 12  1  0
 11 20  1  0
 12 13  2  0
 13 14  1  0
 13 16  1  0
 14 15  2  0
 14 34  1  0
 15 35  1  0
 16 17  1  0
 16 18  1  0
 16 19  1  0
 20 21  1  0
 21 22  2  0
 21 30  1  0
 22 23  1  0
 22 36  1  0
 23 24  2  0
 23 28  1  0
 24 25  1  0
 24 29  1  0
 25 26  1  0
 25 37  1  0
 26 27  2  0
 26 28  1  0
 28 38  1  0
 28 39  1  0
 29 30  2  0
 29 40  1  0
 30 41  1  0
M  END
>  <group_name>  (1) 
JNS

>  <molecule_index>  (1) 
01358

>  <conformer_index>  (1) 
06

>  <method>  (1) 
openff-1.3.0

>  <basis>  (1) 
smirnoff

>  <program>  (1) 
openmm

>  <initial_energy>  (1) 
97.99475985590492 kilocalorie / mole

>  <final_energy>  (1) 
85.48367013472975 kilocalorie / mole

$$$$
