JNS-01374-00
     RDKit          3D

 32 35  0  0  0  0  0  0  0  0999 V2000
   -0.8916   -0.0969   -0.3687 F   0  0  0  0  0  0  0  0  0  0  0  0
   -0.0868    0.4467    0.5902 C   0  0  0  0  0  0  0  0  0  0  0  0
   -0.3058    1.7947    0.5757 F   0  0  0  0  0  0  0  0  0  0  0  0
   -0.4765   -0.0337    1.8068 F   0  0  0  0  0  0  0  0  0  0  0  0
    1.3920    0.1168    0.3515 C   0  0  0  0  0  0  0  0  0  0  0  0
    2.3553    0.9318    0.7465 N   0  0  0  0  0  0  0  0  0  0  0  0
    3.5308    0.3854    0.2652 C   0  0  0  0  0  0  0  0  0  0  0  0
    3.2968   -0.7797   -0.4326 C   0  0  0  0  0  0  0  0  0  0  0  0
    4.2684   -1.5169   -1.0064 N   0  0  0  0  0  0  0  0  0  0  0  0
    5.5510   -1.0703   -0.8890 C   0  0  0  0  0  0  0  0  0  0  0  0
    5.8390    0.1241   -0.1851 C   0  0  0  0  0  0  0  0  0  0  0  0
    4.8183    0.8703    0.4054 C   0  0  0  0  0  0  0  0  0  0  0  0
    6.7114   -1.8470   -1.5241 C   0  0  0  0  0  0  0  0  0  0  0  0
    6.2932   -2.9297   -2.2456 F   0  0  0  0  0  0  0  0  0  0  0  0
    7.5615   -2.2818   -0.5482 F   0  0  0  0  0  0  0  0  0  0  0  0
    7.4111   -1.0263   -2.3621 F   0  0  0  0  0  0  0  0  0  0  0  0
    1.9291   -0.9882   -0.3543 N   0  0  0  0  0  0  0  0  0  0  0  0
    1.2676   -2.1623   -0.7911 C   0  0  0  0  0  0  0  0  0  0  0  0
    1.6514   -2.7869   -1.9865 C   0  0  0  0  0  0  0  0  0  0  0  0
    0.9746   -3.9427   -2.3487 C   0  0  0  0  0  0  0  0  0  0  0  0
   -0.0168   -4.4401   -1.5548 C   0  0  0  0  0  0  0  0  0  0  0  0
   -0.4795   -5.5728   -2.1850 N   0  0  0  0  0  0  0  0  0  0  0  0
    0.1853   -5.8167   -3.3548 N   0  0  0  0  0  0  0  0  0  0  0  0
    1.0668   -4.8495   -3.4726 C   0  0  0  0  0  0  0  0  0  0  0  0
   -0.4140   -3.8984   -0.3999 N   0  0  0  0  0  0  0  0  0  0  0  0
    0.2373   -2.7748   -0.0334 C   0  0  0  0  0  0  0  0  0  0  0  0
    6.8681    0.4621   -0.1041 H   0  0  0  0  0  0  0  0  0  0  0  0
    5.0048    1.7906    0.9529 H   0  0  0  0  0  0  0  0  0  0  0  0
    2.4410   -2.3888   -2.6202 H   0  0  0  0  0  0  0  0  0  0  0  0
   -1.2275   -6.1417   -1.7941 H   0  0  0  0  0  0  0  0  0  0  0  0
    1.7653   -4.7463   -4.2982 H   0  0  0  0  0  0  0  0  0  0  0  0
   -0.0473   -2.3398    0.9182 H   0  0  0  0  0  0  0  0  0  0  0  0
  1  2  1  0
  2  3  1  0
  2  4  1  0
  2  5  1  0
  5  6  2  0
  5 17  1  0
  6  7  1  0
  7  8  2  0
  7 12  1  0
  8  9  1  0
  8 17  1  0
  9 10  2  0
 10 11  1  0
 10 13  1  0
 11 12  2  0
 11 27  1  0
 12 28  1  0
 13 14  1  0
 13 15  1  0
 13 16  1  0
 17 18  1  0
 18 19  2  0
 18 26  1  0
 19 20  1  0
 19 29  1  0
 20 21  2  0
 20 24  1  0
 21 22  1  0
 21 25  1  0
 22 23  1  0
 22 30  1  0
 23 24  2  0
 24 31  1  0
 25 26  2  0
 26 32  1  0
M  END
>  <group_name>  (1) 
JNS

>  <molecule_index>  (1) 
01374

>  <conformer_index>  (1) 
00

>  <method>  (1) 
openff-1.3.0

>  <basis>  (1) 
smirnoff

>  <program>  (1) 
openmm

>  <initial_energy>  (1) 
169.2611921022645 kilocalorie / mole

>  <final_energy>  (1) 
155.45231554486767 kilocalorie / mole

$$$$
