JNS-01614-03
     RDKit          3D

 39 42  0  0  0  0  0  0  0  0999 V2000
   -0.1810    1.5876   -1.5778 C   0  0  0  0  0  0  0  0  0  0  0  0
    0.0670    0.5478   -0.4807 C   0  0  0  0  0  0  0  0  0  0  0  0
    1.5345    0.2123   -0.3554 C   0  0  0  0  0  0  0  0  0  0  0  0
    2.3558    1.0892    0.1745 N   0  0  0  0  0  0  0  0  0  0  0  0
    3.5760    0.4388    0.2392 C   0  0  0  0  0  0  0  0  0  0  0  0
    3.4927   -0.8505   -0.2503 C   0  0  0  0  0  0  0  0  0  0  0  0
    4.5378   -1.7013   -0.3001 N   0  0  0  0  0  0  0  0  0  0  0  0
    5.7378   -1.2522    0.1659 C   0  0  0  0  0  0  0  0  0  0  0  0
    5.8698    0.0610    0.6795 C   0  0  0  0  0  0  0  0  0  0  0  0
    4.7764    0.9273    0.7204 C   0  0  0  0  0  0  0  0  0  0  0  0
    6.9729   -2.1622    0.1543 C   0  0  0  0  0  0  0  0  0  0  0  0
    7.4942   -2.2501    1.4139 F   0  0  0  0  0  0  0  0  0  0  0  0
    7.9294   -1.6305   -0.6626 F   0  0  0  0  0  0  0  0  0  0  0  0
    6.6971   -3.4300   -0.2753 F   0  0  0  0  0  0  0  0  0  0  0  0
    2.1804   -0.9989   -0.6622 N   0  0  0  0  0  0  0  0  0  0  0  0
    1.6369   -2.1431   -1.2832 C   0  0  0  0  0  0  0  0  0  0  0  0
    2.0508   -3.4318   -0.8911 C   0  0  0  0  0  0  0  0  0  0  0  0
    1.5053   -4.5559   -1.5146 C   0  0  0  0  0  0  0  0  0  0  0  0
    0.5749   -4.4339   -2.5113 C   0  0  0  0  0  0  0  0  0  0  0  0
    0.2644   -5.7306   -2.8897 N   0  0  0  0  0  0  0  0  0  0  0  0
    0.9638   -6.6537   -2.1680 N   0  0  0  0  0  0  0  0  0  0  0  0
    1.7199   -5.9743   -1.3368 C   0  0  0  0  0  0  0  0  0  0  0  0
    0.1443   -3.1763   -2.9444 C   0  0  0  0  0  0  0  0  0  0  0  0
   -0.8541   -3.0479   -4.0664 C   0  0  0  0  0  0  0  0  0  0  0  0
    0.6913   -2.0371   -2.3272 C   0  0  0  0  0  0  0  0  0  0  0  0
    0.1725    1.2241   -2.5469 H   0  0  0  0  0  0  0  0  0  0  0  0
   -1.2506    1.8058   -1.6532 H   0  0  0  0  0  0  0  0  0  0  0  0
    0.3471    2.5177   -1.3438 H   0  0  0  0  0  0  0  0  0  0  0  0
   -0.2761    0.9551    0.4750 H   0  0  0  0  0  0  0  0  0  0  0  0
   -0.5193   -0.3529   -0.6745 H   0  0  0  0  0  0  0  0  0  0  0  0
    6.8352    0.3972    1.0460 H   0  0  0  0  0  0  0  0  0  0  0  0
    4.8433    1.9399    1.1078 H   0  0  0  0  0  0  0  0  0  0  0  0
    2.7838   -3.5671   -0.1011 H   0  0  0  0  0  0  0  0  0  0  0  0
   -0.4025   -5.9613   -3.6263 H   0  0  0  0  0  0  0  0  0  0  0  0
    2.4061   -6.4142   -0.6192 H   0  0  0  0  0  0  0  0  0  0  0  0
   -0.5372   -3.6500   -4.9233 H   0  0  0  0  0  0  0  0  0  0  0  0
   -0.9429   -2.0076   -4.3935 H   0  0  0  0  0  0  0  0  0  0  0  0
   -1.8370   -3.3933   -3.7324 H   0  0  0  0  0  0  0  0  0  0  0  0
    0.3921   -1.0621   -2.6915 H   0  0  0  0  0  0  0  0  0  0  0  0
  1  2  1  0
  1 26  1  0
  1 27  1  0
  1 28  1  0
  2  3  1  0
  2 29  1  0
  2 30  1  0
  3  4  2  0
  3 15  1  0
  4  5  1  0
  5  6  2  0
  5 10  1  0
  6  7  1  0
  6 15  1  0
  7  8  2  0
  8  9  1  0
  8 11  1  0
  9 10  2  0
  9 31  1  0
 10 32  1  0
 11 12  1  0
 11 13  1  0
 11 14  1  0
 15 16  1  0
 16 17  2  0
 16 25  1  0
 17 18  1  0
 17 33  1  0
 18 19  2  0
 18 22  1  0
 19 20  1  0
 19 23  1  0
 20 21  1  0
 20 34  1  0
 21 22  2  0
 22 35  1  0
 23 24  1  0
 23 25  2  0
 24 36  1  0
 24 37  1  0
 24 38  1  0
 25 39  1  0
M  END
>  <group_name>  (1) 
JNS

>  <molecule_index>  (1) 
01614

>  <conformer_index>  (1) 
03

>  <method>  (1) 
openff-1.3.0

>  <basis>  (1) 
smirnoff

>  <program>  (1) 
openmm

>  <initial_energy>  (1) 
146.7410996276087 kilocalorie / mole

>  <final_energy>  (1) 
135.29884385853362 kilocalorie / mole

$$$$
