JNS-01155-05
     RDKit          3D

 46 50  0  0  0  0  0  0  0  0999 V2000
    0.1764   -1.5432   -1.7066 F   0  0  0  0  0  0  0  0  0  0  0  0
    0.5662   -0.2581   -1.4628 C   0  0  0  0  0  0  0  0  0  0  0  0
   -0.4180    0.3682   -0.7529 F   0  0  0  0  0  0  0  0  0  0  0  0
    0.6646    0.3626   -2.6760 F   0  0  0  0  0  0  0  0  0  0  0  0
    1.8912   -0.1852   -0.6936 C   0  0  0  0  0  0  0  0  0  0  0  0
    2.7287    0.8242   -0.8453 N   0  0  0  0  0  0  0  0  0  0  0  0
    3.8705    0.5180   -0.0988 C   0  0  0  0  0  0  0  0  0  0  0  0
    3.7093   -0.7125    0.5043 C   0  0  0  0  0  0  0  0  0  0  0  0
    4.6316   -1.3177    1.2716 N   0  0  0  0  0  0  0  0  0  0  0  0
    5.8094   -0.6736    1.4618 C   0  0  0  0  0  0  0  0  0  0  0  0
    6.0398    0.5797    0.8660 C   0  0  0  0  0  0  0  0  0  0  0  0
    5.0799    1.2020    0.0796 C   0  0  0  0  0  0  0  0  0  0  0  0
    5.3692    2.4522   -0.4920 N   0  0  0  0  0  0  0  0  0  0  0  0
    4.3073    3.4358   -0.7925 C   0  0  0  0  0  0  0  0  0  0  0  0
    4.1345    3.5623   -2.3118 C   0  0  0  0  0  0  0  0  0  0  0  0
    5.3962    3.8754   -2.9418 O   0  0  0  0  0  0  0  0  0  0  0  0
    6.3873    2.8550   -2.6963 C   0  0  0  0  0  0  0  0  0  0  0  0
    6.6512    2.6732   -1.1926 C   0  0  0  0  0  0  0  0  0  0  0  0
    6.9203   -1.3028    2.3182 C   0  0  0  0  0  0  0  0  0  0  0  0
    8.0836   -1.3578    1.6026 F   0  0  0  0  0  0  0  0  0  0  0  0
    6.6233   -2.5730    2.7277 F   0  0  0  0  0  0  0  0  0  0  0  0
    7.1430   -0.5366    3.4268 F   0  0  0  0  0  0  0  0  0  0  0  0
    2.4391   -1.1512    0.1729 N   0  0  0  0  0  0  0  0  0  0  0  0
    1.8024   -2.2848    0.7209 C   0  0  0  0  0  0  0  0  0  0  0  0
    0.4578   -2.2388    1.1464 C   0  0  0  0  0  0  0  0  0  0  0  0
   -0.1392   -3.3806    1.6891 C   0  0  0  0  0  0  0  0  0  0  0  0
    0.5620   -4.5477    1.8313 C   0  0  0  0  0  0  0  0  0  0  0  0
   -0.3208   -5.4516    2.3982 N   0  0  0  0  0  0  0  0  0  0  0  0
   -1.5467   -4.8928    2.6170 N   0  0  0  0  0  0  0  0  0  0  0  0
   -1.4647   -3.6499    2.2014 C   0  0  0  0  0  0  0  0  0  0  0  0
    1.8971   -4.6273    1.4388 C   0  0  0  0  0  0  0  0  0  0  0  0
    2.5130   -3.4943    0.8873 C   0  0  0  0  0  0  0  0  0  0  0  0
    6.9832    1.0789    1.0522 H   0  0  0  0  0  0  0  0  0  0  0  0
    4.5913    4.4099   -0.3823 H   0  0  0  0  0  0  0  0  0  0  0  0
    3.3568    3.1696   -0.3226 H   0  0  0  0  0  0  0  0  0  0  0  0
    3.7428    2.6217   -2.7124 H   0  0  0  0  0  0  0  0  0  0  0  0
    3.4058    4.3477   -2.5318 H   0  0  0  0  0  0  0  0  0  0  0  0
    6.0404    1.9050   -3.1156 H   0  0  0  0  0  0  0  0  0  0  0  0
    7.3212    3.1203   -3.2004 H   0  0  0  0  0  0  0  0  0  0  0  0
    7.3347    1.8297   -1.0571 H   0  0  0  0  0  0  0  0  0  0  0  0
    7.1414    3.5666   -0.7930 H   0  0  0  0  0  0  0  0  0  0  0  0
   -0.1244   -1.3260    1.0849 H   0  0  0  0  0  0  0  0  0  0  0  0
   -0.0777   -6.4153    2.6294 H   0  0  0  0  0  0  0  0  0  0  0  0
   -2.2760   -2.9290    2.2369 H   0  0  0  0  0  0  0  0  0  0  0  0
    2.4574   -5.5493    1.5587 H   0  0  0  0  0  0  0  0  0  0  0  0
    3.5529   -3.5649    0.5809 H   0  0  0  0  0  0  0  0  0  0  0  0
  1  2  1  0
  2  3  1  0
  2  4  1  0
  2  5  1  0
  5  6  2  0
  5 23  1  0
  6  7  1  0
  7  8  2  0
  7 12  1  0
  8  9  1  0
  8 23  1  0
  9 10  2  0
 10 11  1  0
 10 19  1  0
 11 12  2  0
 11 33  1  0
 12 13  1  0
 13 14  1  0
 13 18  1  0
 14 15  1  0
 14 34  1  0
 14 35  1  0
 15 16  1  0
 15 36  1  0
 15 37  1  0
 16 17  1  0
 17 18  1  0
 17 38  1  0
 17 39  1  0
 18 40  1  0
 18 41  1  0
 19 20  1  0
 19 21  1  0
 19 22  1  0
 23 24  1  0
 24 25  2  0
 24 32  1  0
 25 26  1  0
 25 42  1  0
 26 27  2  0
 26 30  1  0
 27 28  1  0
 27 31  1  0
 28 29  1  0
 28 43  1  0
 29 30  2  0
 30 44  1  0
 31 32  2  0
 31 45  1  0
 32 46  1  0
M  END
>  <group_name>  (1) 
JNS

>  <molecule_index>  (1) 
01155

>  <conformer_index>  (1) 
05

>  <method>  (1) 
openff-1.3.0

>  <basis>  (1) 
smirnoff

>  <program>  (1) 
openmm

>  <initial_energy>  (1) 
212.97637170809585 kilocalorie / mole

>  <final_energy>  (1) 
193.42862052350807 kilocalorie / mole

$$$$
