JNS-01596-03
     RDKit          3D

 37 41  0  0  0  0  0  0  0  0999 V2000
   -3.6300    2.0461    1.3118 F   0  0  0  0  0  0  0  0  0  0  0  0
   -3.4966    0.7267    1.0251 C   0  0  0  0  0  0  0  0  0  0  0  0
   -4.4835   -0.2419    1.0803 N   0  0  0  0  0  0  0  0  0  0  0  0
   -4.0092   -1.4671    0.7250 N   0  0  0  0  0  0  0  0  0  0  0  0
   -2.7457   -1.2608    0.4552 C   0  0  0  0  0  0  0  0  0  0  0  0
   -2.3784    0.0638    0.6229 C   0  0  0  0  0  0  0  0  0  0  0  0
   -1.0673    0.4839    0.3853 C   0  0  0  0  0  0  0  0  0  0  0  0
   -0.0966   -0.4455   -0.0421 C   0  0  0  0  0  0  0  0  0  0  0  0
   -0.4860   -1.7961   -0.1939 C   0  0  0  0  0  0  0  0  0  0  0  0
   -1.8064   -2.2046    0.0493 C   0  0  0  0  0  0  0  0  0  0  0  0
    1.2287   -0.0344   -0.2894 N   0  0  0  0  0  0  0  0  0  0  0  0
    2.1095   -0.5267   -1.2648 C   0  0  0  0  0  0  0  0  0  0  0  0
    3.3095   -0.0031   -1.1552 N   0  0  0  0  0  0  0  0  0  0  0  0
    3.2108    0.8882   -0.1006 C   0  0  0  0  0  0  0  0  0  0  0  0
    1.9385    0.9017    0.4392 C   0  0  0  0  0  0  0  0  0  0  0  0
    1.5771    1.6767    1.4818 N   0  0  0  0  0  0  0  0  0  0  0  0
    2.5263    2.4952    2.0175 C   0  0  0  0  0  0  0  0  0  0  0  0
    3.8416    2.5192    1.4929 C   0  0  0  0  0  0  0  0  0  0  0  0
    4.1985    1.7051    0.4171 C   0  0  0  0  0  0  0  0  0  0  0  0
    2.1935    3.4143    3.1999 C   0  0  0  0  0  0  0  0  0  0  0  0
    2.9772    3.0894    4.2704 F   0  0  0  0  0  0  0  0  0  0  0  0
    2.4570    4.7119    2.8636 F   0  0  0  0  0  0  0  0  0  0  0  0
    0.8857    3.3358    3.5883 F   0  0  0  0  0  0  0  0  0  0  0  0
    1.7652   -1.5087   -2.3662 C   0  0  0  0  0  0  0  0  0  0  0  0
    2.4849   -2.8562   -2.4084 C   0  0  0  0  0  0  0  0  0  0  0  0
    2.7769   -1.8096   -3.4743 C   0  0  0  0  0  0  0  0  0  0  0  0
   -5.4419   -0.0524    1.3623 H   0  0  0  0  0  0  0  0  0  0  0  0
   -0.8186    1.5318    0.5248 H   0  0  0  0  0  0  0  0  0  0  0  0
    0.2381   -2.5527   -0.4744 H   0  0  0  0  0  0  0  0  0  0  0  0
   -2.1006   -3.2434   -0.0647 H   0  0  0  0  0  0  0  0  0  0  0  0
    4.5813    3.1796    1.9356 H   0  0  0  0  0  0  0  0  0  0  0  0
    5.1981    1.6978   -0.0078 H   0  0  0  0  0  0  0  0  0  0  0  0
    0.7146   -1.4758   -2.6687 H   0  0  0  0  0  0  0  0  0  0  0  0
    3.2602   -3.0421   -1.6572 H   0  0  0  0  0  0  0  0  0  0  0  0
    1.9050   -3.7338   -2.7113 H   0  0  0  0  0  0  0  0  0  0  0  0
    3.7499   -1.3075   -3.4408 H   0  0  0  0  0  0  0  0  0  0  0  0
    2.3868   -1.9866   -4.4815 H   0  0  0  0  0  0  0  0  0  0  0  0
  1  2  1  0
  2  3  1  0
  2  6  2  0
  3  4  1  0
  3 27  1  0
  4  5  2  0
  5  6  1  0
  5 10  1  0
  6  7  1  0
  7  8  2  0
  7 28  1  0
  8  9  1  0
  8 11  1  0
  9 10  2  0
  9 29  1  0
 10 30  1  0
 11 12  1  0
 11 15  1  0
 12 13  2  0
 12 24  1  0
 13 14  1  0
 14 15  2  0
 14 19  1  0
 15 16  1  0
 16 17  2  0
 17 18  1  0
 17 20  1  0
 18 19  2  0
 18 31  1  0
 19 32  1  0
 20 21  1  0
 20 22  1  0
 20 23  1  0
 24 25  1  0
 24 26  1  0
 24 33  1  0
 25 26  1  0
 25 34  1  0
 25 35  1  0
 26 36  1  0
 26 37  1  0
M  END
>  <group_name>  (1) 
JNS

>  <molecule_index>  (1) 
01596

>  <conformer_index>  (1) 
03

>  <method>  (1) 
openff-1.3.0

>  <basis>  (1) 
smirnoff

>  <program>  (1) 
openmm

>  <initial_energy>  (1) 
160.9526869315335 kilocalorie / mole

>  <final_energy>  (1) 
146.84873731605947 kilocalorie / mole

$$$$
