JNS-01581-08
     RDKit          3D

 40 44  0  0  0  0  0  0  0  0999 V2000
   -0.6820    0.2307   -0.6577 F   0  0  0  0  0  0  0  0  0  0  0  0
   -0.0056   -0.9343   -0.4309 C   0  0  0  0  0  0  0  0  0  0  0  0
   -0.1624   -1.7346   -1.5262 F   0  0  0  0  0  0  0  0  0  0  0  0
   -0.5839   -1.5545    0.6411 F   0  0  0  0  0  0  0  0  0  0  0  0
    1.4839   -0.6357   -0.2166 C   0  0  0  0  0  0  0  0  0  0  0  0
    2.1195   -1.0440    0.9185 N   0  0  0  0  0  0  0  0  0  0  0  0
    3.4266   -0.7380    1.0431 C   0  0  0  0  0  0  0  0  0  0  0  0
    4.1477   -0.0447    0.0912 C   0  0  0  0  0  0  0  0  0  0  0  0
    3.5359    0.3848   -1.0717 C   0  0  0  0  0  0  0  0  0  0  0  0
    2.1819    0.0802   -1.2198 C   0  0  0  0  0  0  0  0  0  0  0  0
    5.4643    0.1325    0.4800 N   0  0  0  0  0  0  0  0  0  0  0  0
    5.5512   -0.4429    1.6591 C   0  0  0  0  0  0  0  0  0  0  0  0
    6.8229   -0.3670    2.4858 C   0  0  0  0  0  0  0  0  0  0  0  0
    7.5977    0.9553    2.4542 C   0  0  0  0  0  0  0  0  0  0  0  0
    8.8728    0.1906    2.1191 C   0  0  0  0  0  0  0  0  0  0  0  0
    8.0483   -1.0726    1.9017 C   0  0  0  0  0  0  0  0  0  0  0  0
    4.3347   -1.0338    2.0422 N   0  0  0  0  0  0  0  0  0  0  0  0
    4.0902   -1.8731    3.1481 C   0  0  0  0  0  0  0  0  0  0  0  0
    2.8454   -1.8415    3.8099 C   0  0  0  0  0  0  0  0  0  0  0  0
    2.6188   -2.6829    4.9027 C   0  0  0  0  0  0  0  0  0  0  0  0
    3.5862   -3.5476    5.3398 C   0  0  0  0  0  0  0  0  0  0  0  0
    3.0359   -4.2164    6.4196 N   0  0  0  0  0  0  0  0  0  0  0  0
    1.7602   -3.8021    6.6746 N   0  0  0  0  0  0  0  0  0  0  0  0
    1.4838   -2.8844    5.7762 C   0  0  0  0  0  0  0  0  0  0  0  0
    4.8252   -3.6250    4.7035 C   0  0  0  0  0  0  0  0  0  0  0  0
    6.0442   -4.7431    5.2530 Cl  0  0  0  0  0  0  0  0  0  0  0  0
    5.0653   -2.7891    3.6035 C   0  0  0  0  0  0  0  0  0  0  0  0
    4.1003    0.9323   -1.8213 H   0  0  0  0  0  0  0  0  0  0  0  0
    1.6551    0.3958   -2.1155 H   0  0  0  0  0  0  0  0  0  0  0  0
    6.6389   -0.6659    3.5211 H   0  0  0  0  0  0  0  0  0  0  0  0
    7.6236    1.4866    3.4110 H   0  0  0  0  0  0  0  0  0  0  0  0
    7.2920    1.6429    1.6581 H   0  0  0  0  0  0  0  0  0  0  0  0
    9.5705    0.1170    2.9598 H   0  0  0  0  0  0  0  0  0  0  0  0
    9.3932    0.5498    1.2252 H   0  0  0  0  0  0  0  0  0  0  0  0
    8.3886   -1.9427    2.4722 H   0  0  0  0  0  0  0  0  0  0  0  0
    7.9432   -1.3355    0.8430 H   0  0  0  0  0  0  0  0  0  0  0  0
    2.0599   -1.1638    3.4875 H   0  0  0  0  0  0  0  0  0  0  0  0
    3.5294   -4.9383    6.9468 H   0  0  0  0  0  0  0  0  0  0  0  0
    0.5396   -2.3531    5.7011 H   0  0  0  0  0  0  0  0  0  0  0  0
    6.0164   -2.8871    3.0927 H   0  0  0  0  0  0  0  0  0  0  0  0
  1  2  1  0
  2  3  1  0
  2  4  1  0
  2  5  1  0
  5  6  2  0
  5 10  1  0
  6  7  1  0
  7  8  2  0
  7 17  1  0
  8  9  1  0
  8 11  1  0
  9 10  2  0
  9 28  1  0
 10 29  1  0
 11 12  2  0
 12 13  1  0
 12 17  1  0
 13 14  1  0
 13 16  1  0
 13 30  1  0
 14 15  1  0
 14 31  1  0
 14 32  1  0
 15 16  1  0
 15 33  1  0
 15 34  1  0
 16 35  1  0
 16 36  1  0
 17 18  1  0
 18 19  2  0
 18 27  1  0
 19 20  1  0
 19 37  1  0
 20 21  2  0
 20 24  1  0
 21 22  1  0
 21 25  1  0
 22 23  1  0
 22 38  1  0
 23 24  2  0
 24 39  1  0
 25 26  1  0
 25 27  2  0
 27 40  1  0
M  END
>  <group_name>  (1) 
JNS

>  <molecule_index>  (1) 
01581

>  <conformer_index>  (1) 
08

>  <method>  (1) 
openff-1.3.0

>  <basis>  (1) 
smirnoff

>  <program>  (1) 
openmm

>  <initial_energy>  (1) 
190.93516255225265 kilocalorie / mole

>  <final_energy>  (1) 
178.19266345113405 kilocalorie / mole

$$$$
