JNS-02158-07
     RDKit          3D

 42 45  0  0  0  0  0  0  0  0999 V2000
   -1.4552    2.4767    1.4658 C   0  0  0  0  0  0  0  0  0  0  0  0
   -1.4813    2.0382   -0.0015 C   0  0  2  0  0  0  0  0  0  0  0  0
   -0.1513    1.5088   -0.3706 N   0  0  0  0  0  0  0  0  0  0  0  0
    0.7639    2.3863   -1.1149 C   0  0  0  0  0  0  0  0  0  0  0  0
    0.0806    2.9377   -2.3693 C   0  0  0  0  0  0  0  0  0  0  0  0
   -1.2245    3.5983   -1.9910 C   0  0  0  0  0  0  0  0  0  0  0  0
   -1.9132    3.1891   -0.8910 C   0  0  0  0  0  0  0  0  0  0  0  0
   -3.0272    3.9870   -0.7084 N   0  0  0  0  0  0  0  0  0  0  0  0
   -3.0337    4.8812   -1.6625 N   0  0  0  0  0  0  0  0  0  0  0  0
   -1.9557    4.6800   -2.4738 N   0  0  0  0  0  0  0  0  0  0  0  0
   -1.6995    5.4406   -3.6403 C   0  0  0  0  0  0  0  0  0  0  0  0
   -2.5108    6.4848   -3.9157 N   0  0  0  0  0  0  0  0  0  0  0  0
   -2.2789    7.1994   -5.0192 C   0  0  0  0  0  0  0  0  0  0  0  0
   -1.2392    6.8971   -5.8752 C   0  0  0  0  0  0  0  0  0  0  0  0
   -1.0069    7.6272   -6.9972 F   0  0  0  0  0  0  0  0  0  0  0  0
   -0.4458    5.8187   -5.5397 C   0  0  0  0  0  0  0  0  0  0  0  0
   -0.6646    5.0934   -4.4379 N   0  0  0  0  0  0  0  0  0  0  0  0
    0.1606    0.1802   -0.0919 C   0  0  0  0  0  0  0  0  0  0  0  0
   -0.7319   -0.5746    0.2852 O   0  0  0  0  0  0  0  0  0  0  0  0
    1.4989   -0.4067   -0.2615 C   0  0  0  0  0  0  0  0  0  0  0  0
    1.6491   -1.6214   -0.9376 C   0  0  0  0  0  0  0  0  0  0  0  0
    2.9108   -2.1927   -1.0880 C   0  0  0  0  0  0  0  0  0  0  0  0
    4.0266   -1.6247   -0.5994 N   0  0  0  0  0  0  0  0  0  0  0  0
    3.9127   -0.4572    0.0986 C   0  0  0  0  0  0  0  0  0  0  0  0
    2.6544    0.1672    0.2919 C   0  0  0  0  0  0  0  0  0  0  0  0
    2.5559    1.3052    1.0308 F   0  0  0  0  0  0  0  0  0  0  0  0
    5.1610    0.2078    0.6875 C   0  0  0  0  0  0  0  0  0  0  0  0
    5.0596    0.2866    2.0466 F   0  0  0  0  0  0  0  0  0  0  0  0
    5.3003    1.4684    0.1798 F   0  0  0  0  0  0  0  0  0  0  0  0
    6.3058   -0.4786    0.3967 F   0  0  0  0  0  0  0  0  0  0  0  0
   -1.1798    1.6359    2.1097 H   0  0  0  0  0  0  0  0  0  0  0  0
   -0.7312    3.2845    1.6107 H   0  0  0  0  0  0  0  0  0  0  0  0
   -2.4431    2.8323    1.7743 H   0  0  0  0  0  0  0  0  0  0  0  0
   -2.2406    1.2568   -0.1185 H   0  0  0  0  0  0  0  0  0  0  0  0
    1.0712    3.2156   -0.4685 H   0  0  0  0  0  0  0  0  0  0  0  0
    1.6709    1.8639   -1.4298 H   0  0  0  0  0  0  0  0  0  0  0  0
   -0.1186    2.1249   -3.0744 H   0  0  0  0  0  0  0  0  0  0  0  0
    0.7545    3.6516   -2.8501 H   0  0  0  0  0  0  0  0  0  0  0  0
   -2.9266    8.0410   -5.2483 H   0  0  0  0  0  0  0  0  0  0  0  0
    0.3819    5.5513   -6.1906 H   0  0  0  0  0  0  0  0  0  0  0  0
    0.7814   -2.1323   -1.3464 H   0  0  0  0  0  0  0  0  0  0  0  0
    2.9986   -3.1339   -1.6233 H   0  0  0  0  0  0  0  0  0  0  0  0
  1  2  1  0
  1 31  1  0
  1 32  1  0
  1 33  1  0
  2  3  1  0
  2  7  1  0
  2 34  1  1
  3  4  1  0
  3 18  1  0
  4  5  1  0
  4 35  1  0
  4 36  1  0
  5  6  1  0
  5 37  1  0
  5 38  1  0
  6  7  2  0
  6 10  1  0
  7  8  1  0
  8  9  2  0
  9 10  1  0
 10 11  1  0
 11 12  2  0
 11 17  1  0
 12 13  1  0
 13 14  2  0
 13 39  1  0
 14 15  1  0
 14 16  1  0
 16 17  2  0
 16 40  1  0
 18 19  2  0
 18 20  1  0
 20 21  2  0
 20 25  1  0
 21 22  1  0
 21 41  1  0
 22 23  2  0
 22 42  1  0
 23 24  1  0
 24 25  2  0
 24 27  1  0
 25 26  1  0
 27 28  1  0
 27 29  1  0
 27 30  1  0
M  END
>  <group_name>  (1) 
JNS

>  <molecule_index>  (1) 
02158

>  <conformer_index>  (1) 
07

>  <method>  (1) 
openff-1.3.0

>  <basis>  (1) 
smirnoff

>  <program>  (1) 
openmm

>  <initial_energy>  (1) 
87.4287110056421 kilocalorie / mole

>  <final_energy>  (1) 
76.42527905311552 kilocalorie / mole

$$$$
