JNS-01374-03
     RDKit          3D

 32 35  0  0  0  0  0  0  0  0999 V2000
   -0.6727    0.6943   -1.0967 F   0  0  0  0  0  0  0  0  0  0  0  0
   -0.0988    0.2840    0.0723 C   0  0  0  0  0  0  0  0  0  0  0  0
   -0.7126   -0.8669    0.4748 F   0  0  0  0  0  0  0  0  0  0  0  0
   -0.3613    1.2268    1.0249 F   0  0  0  0  0  0  0  0  0  0  0  0
    1.4100    0.0938   -0.1274 C   0  0  0  0  0  0  0  0  0  0  0  0
    2.2689    1.0787    0.0780 N   0  0  0  0  0  0  0  0  0  0  0  0
    3.5253    0.5221   -0.0815 C   0  0  0  0  0  0  0  0  0  0  0  0
    3.4446   -0.8179   -0.3903 C   0  0  0  0  0  0  0  0  0  0  0  0
    4.5140   -1.6072   -0.6064 N   0  0  0  0  0  0  0  0  0  0  0  0
    5.7474   -1.0357   -0.4994 C   0  0  0  0  0  0  0  0  0  0  0  0
    5.8825    0.3369   -0.1772 C   0  0  0  0  0  0  0  0  0  0  0  0
    4.7586    1.1367    0.0361 C   0  0  0  0  0  0  0  0  0  0  0  0
    7.0185   -1.8649   -0.7229 C   0  0  0  0  0  0  0  0  0  0  0  0
    7.8037   -1.8117    0.3932 F   0  0  0  0  0  0  0  0  0  0  0  0
    6.7562   -3.1776   -0.9963 F   0  0  0  0  0  0  0  0  0  0  0  0
    7.7289   -1.3435   -1.7661 F   0  0  0  0  0  0  0  0  0  0  0  0
    2.0920   -1.1019   -0.4581 N   0  0  0  0  0  0  0  0  0  0  0  0
    1.5529   -2.3353   -0.8935 C   0  0  0  0  0  0  0  0  0  0  0  0
    0.4472   -2.3917   -1.7544 C   0  0  0  0  0  0  0  0  0  0  0  0
   -0.0023   -3.6488   -2.1317 C   0  0  0  0  0  0  0  0  0  0  0  0
    0.6287   -4.7716   -1.6806 C   0  0  0  0  0  0  0  0  0  0  0  0
   -0.0454   -5.8380   -2.2301 N   0  0  0  0  0  0  0  0  0  0  0  0
   -1.0861   -5.4345   -3.0201 N   0  0  0  0  0  0  0  0  0  0  0  0
   -1.0787   -4.1217   -2.9765 C   0  0  0  0  0  0  0  0  0  0  0  0
    1.6922   -4.7791   -0.8739 N   0  0  0  0  0  0  0  0  0  0  0  0
    2.1468   -3.5633   -0.4995 C   0  0  0  0  0  0  0  0  0  0  0  0
    6.8747    0.7715   -0.0968 H   0  0  0  0  0  0  0  0  0  0  0  0
    4.8276    2.1929    0.2831 H   0  0  0  0  0  0  0  0  0  0  0  0
   -0.0412   -1.5034   -2.1438 H   0  0  0  0  0  0  0  0  0  0  0  0
    0.2328   -6.8011   -2.0534 H   0  0  0  0  0  0  0  0  0  0  0  0
   -1.7831   -3.4825   -3.5011 H   0  0  0  0  0  0  0  0  0  0  0  0
    3.0029   -3.5481    0.1678 H   0  0  0  0  0  0  0  0  0  0  0  0
  1  2  1  0
  2  3  1  0
  2  4  1  0
  2  5  1  0
  5  6  2  0
  5 17  1  0
  6  7  1  0
  7  8  2  0
  7 12  1  0
  8  9  1  0
  8 17  1  0
  9 10  2  0
 10 11  1  0
 10 13  1  0
 11 12  2  0
 11 27  1  0
 12 28  1  0
 13 14  1  0
 13 15  1  0
 13 16  1  0
 17 18  1  0
 18 19  2  0
 18 26  1  0
 19 20  1  0
 19 29  1  0
 20 21  2  0
 20 24  1  0
 21 22  1  0
 21 25  1  0
 22 23  1  0
 22 30  1  0
 23 24  2  0
 24 31  1  0
 25 26  2  0
 26 32  1  0
M  END
>  <group_name>  (1) 
JNS

>  <molecule_index>  (1) 
01374

>  <conformer_index>  (1) 
03

>  <method>  (1) 
openff-1.3.0

>  <basis>  (1) 
smirnoff

>  <program>  (1) 
openmm

>  <initial_energy>  (1) 
168.81160079015572 kilocalorie / mole

>  <final_energy>  (1) 
154.67085232481625 kilocalorie / mole

$$$$
