JNS-01565-04
     RDKit          3D

 41 44  0  0  0  0  0  0  0  0999 V2000
   -0.5929   -0.5554   -2.0814 C   0  0  0  0  0  0  0  0  0  0  0  0
    0.0179   -0.7692   -0.6922 C   0  0  0  0  0  0  0  0  0  0  0  0
   -0.9063   -0.2270    0.4060 C   0  0  0  0  0  0  0  0  0  0  0  0
    1.4518   -0.2465   -0.6090 C   0  0  0  0  0  0  0  0  0  0  0  0
    2.5535   -1.0308   -0.9341 C   0  0  0  0  0  0  0  0  0  0  0  0
    2.5797   -2.8114   -1.6519 Br  0  0  0  0  0  0  0  0  0  0  0  0
    3.7418   -0.2829   -0.5846 C   0  0  0  0  0  0  0  0  0  0  0  0
    3.3372    0.9308   -0.0634 C   0  0  0  0  0  0  0  0  0  0  0  0
    4.1840    1.8809    0.3782 N   0  0  0  0  0  0  0  0  0  0  0  0
    5.5182    1.6167    0.3032 C   0  0  0  0  0  0  0  0  0  0  0  0
    5.9839    0.3878   -0.2222 C   0  0  0  0  0  0  0  0  0  0  0  0
    5.0923   -0.5838   -0.6753 C   0  0  0  0  0  0  0  0  0  0  0  0
    6.5485    2.6422    0.7938 C   0  0  0  0  0  0  0  0  0  0  0  0
    5.9736    3.7539    1.3434 F   0  0  0  0  0  0  0  0  0  0  0  0
    7.3522    2.0727    1.7404 F   0  0  0  0  0  0  0  0  0  0  0  0
    7.3372    3.0383   -0.2484 F   0  0  0  0  0  0  0  0  0  0  0  0
    1.9424    0.9849   -0.1142 N   0  0  0  0  0  0  0  0  0  0  0  0
    1.2132    2.1537    0.1619 C   0  0  0  0  0  0  0  0  0  0  0  0
    1.3809    2.8135    1.3850 C   0  0  0  0  0  0  0  0  0  0  0  0
    0.6407    3.9704    1.5853 C   0  0  0  0  0  0  0  0  0  0  0  0
   -0.1997    4.4180    0.5868 C   0  0  0  0  0  0  0  0  0  0  0  0
   -0.8382    5.5636    0.9433 N   0  0  0  0  0  0  0  0  0  0  0  0
   -0.3129    5.9656    2.1325 C   0  0  0  0  0  0  0  0  0  0  0  0
   -0.4663    7.1084    2.5363 O   0  0  0  0  0  0  0  0  0  0  0  0
    0.6256    4.9291    2.7471 C   0  0  0  0  0  0  0  0  0  0  0  0
   -0.3597    3.8558   -0.6051 N   0  0  0  0  0  0  0  0  0  0  0  0
    0.3618    2.7320   -0.8051 C   0  0  0  0  0  0  0  0  0  0  0  0
   -0.7417    0.5035   -2.2969 H   0  0  0  0  0  0  0  0  0  0  0  0
   -1.5661   -1.0520   -2.1439 H   0  0  0  0  0  0  0  0  0  0  0  0
    0.0579   -0.9807   -2.8515 H   0  0  0  0  0  0  0  0  0  0  0  0
    0.0595   -1.8494   -0.5241 H   0  0  0  0  0  0  0  0  0  0  0  0
   -1.1361    0.8301    0.2596 H   0  0  0  0  0  0  0  0  0  0  0  0
   -0.4420   -0.3576    1.3885 H   0  0  0  0  0  0  0  0  0  0  0  0
   -1.8543   -0.7738    0.3996 H   0  0  0  0  0  0  0  0  0  0  0  0
    7.0526    0.2005   -0.2715 H   0  0  0  0  0  0  0  0  0  0  0  0
    5.4351   -1.5329   -1.0792 H   0  0  0  0  0  0  0  0  0  0  0  0
    2.0684    2.4402    2.1413 H   0  0  0  0  0  0  0  0  0  0  0  0
   -1.0521    6.2574    0.2406 H   0  0  0  0  0  0  0  0  0  0  0  0
    1.6108    5.3586    2.9477 H   0  0  0  0  0  0  0  0  0  0  0  0
    0.1876    4.4864    3.6450 H   0  0  0  0  0  0  0  0  0  0  0  0
    0.2956    2.2666   -1.7814 H   0  0  0  0  0  0  0  0  0  0  0  0
  1  2  1  0
  1 28  1  0
  1 29  1  0
  1 30  1  0
  2  3  1  0
  2  4  1  0
  2 31  1  0
  3 32  1  0
  3 33  1  0
  3 34  1  0
  4  5  2  0
  4 17  1  0
  5  6  1  0
  5  7  1  0
  7  8  2  0
  7 12  1  0
  8  9  1  0
  8 17  1  0
  9 10  2  0
 10 11  1  0
 10 13  1  0
 11 12  2  0
 11 35  1  0
 12 36  1  0
 13 14  1  0
 13 15  1  0
 13 16  1  0
 17 18  1  0
 18 19  2  0
 18 27  1  0
 19 20  1  0
 19 37  1  0
 20 21  2  0
 20 25  1  0
 21 22  1  0
 21 26  1  0
 22 23  1  0
 22 38  1  0
 23 24  2  0
 23 25  1  0
 25 39  1  0
 25 40  1  0
 26 27  2  0
 27 41  1  0
M  END
>  <group_name>  (1) 
JNS

>  <molecule_index>  (1) 
01565

>  <conformer_index>  (1) 
04

>  <method>  (1) 
openff-1.3.0

>  <basis>  (1) 
smirnoff

>  <program>  (1) 
openmm

>  <initial_energy>  (1) 
60.49578286219966 kilocalorie / mole

>  <final_energy>  (1) 
48.37017508868477 kilocalorie / mole

$$$$
