JNS-01448-06
     RDKit          3D

 43 47  0  0  0  0  0  0  0  0999 V2000
   -0.2137   -3.1534   -1.4537 F   0  0  0  0  0  0  0  0  0  0  0  0
   -0.6854   -2.0497   -2.1048 C   0  0  0  0  0  0  0  0  0  0  0  0
    0.2211   -1.6917   -3.0606 F   0  0  0  0  0  0  0  0  0  0  0  0
   -1.8267   -2.4095   -2.7635 F   0  0  0  0  0  0  0  0  0  0  0  0
   -0.9546   -0.9209   -1.1005 C   0  0  0  0  0  0  0  0  0  0  0  0
   -2.1240   -0.7944   -0.4951 N   0  0  0  0  0  0  0  0  0  0  0  0
   -2.0464    0.3833    0.2262 C   0  0  0  0  0  0  0  0  0  0  0  0
   -0.8196    0.9924    0.0697 C   0  0  0  0  0  0  0  0  0  0  0  0
   -0.4809    2.1558    0.6609 N   0  0  0  0  0  0  0  0  0  0  0  0
   -1.4142    2.7557    1.4526 C   0  0  0  0  0  0  0  0  0  0  0  0
   -2.6888    2.1682    1.6404 C   0  0  0  0  0  0  0  0  0  0  0  0
   -3.0188    0.9622    1.0209 C   0  0  0  0  0  0  0  0  0  0  0  0
   -1.1087    4.0865    2.1519 C   0  0  0  0  0  0  0  0  0  0  0  0
    0.1168    4.5924    1.8204 F   0  0  0  0  0  0  0  0  0  0  0  0
   -1.1518    3.9148    3.5058 F   0  0  0  0  0  0  0  0  0  0  0  0
   -2.0529    5.0131    1.8120 F   0  0  0  0  0  0  0  0  0  0  0  0
   -0.0937    0.1446   -0.7486 N   0  0  0  0  0  0  0  0  0  0  0  0
    1.2792    0.2889   -1.0396 C   0  0  0  0  0  0  0  0  0  0  0  0
    1.8216    1.5629   -1.3028 C   0  0  0  0  0  0  0  0  0  0  0  0
    3.1821    1.6906   -1.5896 C   0  0  0  0  0  0  0  0  0  0  0  0
    4.0076    0.5984   -1.6101 C   0  0  0  0  0  0  0  0  0  0  0  0
    5.2566    1.0828   -1.9613 N   0  0  0  0  0  0  0  0  0  0  0  0
    5.2486    2.4364   -2.1361 N   0  0  0  0  0  0  0  0  0  0  0  0
    4.0144    2.8269   -1.9160 C   0  0  0  0  0  0  0  0  0  0  0  0
    3.5224   -0.6832   -1.3268 C   0  0  0  0  0  0  0  0  0  0  0  0
    2.1531   -0.8214   -1.0400 C   0  0  0  0  0  0  0  0  0  0  0  0
    4.4084   -1.8510   -1.3228 C   0  0  0  0  0  0  0  0  0  0  0  0
    5.6458   -1.8116   -0.6586 C   0  0  0  0  0  0  0  0  0  0  0  0
    6.4903   -2.9280   -0.6582 C   0  0  0  0  0  0  0  0  0  0  0  0
    6.1040   -4.0977   -1.3197 C   0  0  0  0  0  0  0  0  0  0  0  0
    4.8712   -4.1509   -1.9772 C   0  0  0  0  0  0  0  0  0  0  0  0
    4.0275   -3.0341   -1.9763 C   0  0  0  0  0  0  0  0  0  0  0  0
   -3.4177    2.6637    2.2750 H   0  0  0  0  0  0  0  0  0  0  0  0
   -3.9874    0.4848    1.1433 H   0  0  0  0  0  0  0  0  0  0  0  0
    1.1933    2.4492   -1.3017 H   0  0  0  0  0  0  0  0  0  0  0  0
    6.0675    0.4806   -2.1100 H   0  0  0  0  0  0  0  0  0  0  0  0
    3.6683    3.8547   -1.9748 H   0  0  0  0  0  0  0  0  0  0  0  0
    1.7907   -1.8089   -0.7789 H   0  0  0  0  0  0  0  0  0  0  0  0
    5.9452   -0.9188   -0.1172 H   0  0  0  0  0  0  0  0  0  0  0  0
    7.4427   -2.8895   -0.1367 H   0  0  0  0  0  0  0  0  0  0  0  0
    6.7579   -4.9654   -1.3189 H   0  0  0  0  0  0  0  0  0  0  0  0
    4.5678   -5.0592   -2.4905 H   0  0  0  0  0  0  0  0  0  0  0  0
    3.0769   -3.0849   -2.4997 H   0  0  0  0  0  0  0  0  0  0  0  0
  1  2  1  0
  2  3  1  0
  2  4  1  0
  2  5  1  0
  5  6  2  0
  5 17  1  0
  6  7  1  0
  7  8  2  0
  7 12  1  0
  8  9  1  0
  8 17  1  0
  9 10  2  0
 10 11  1  0
 10 13  1  0
 11 12  2  0
 11 33  1  0
 12 34  1  0
 13 14  1  0
 13 15  1  0
 13 16  1  0
 17 18  1  0
 18 19  2  0
 18 26  1  0
 19 20  1  0
 19 35  1  0
 20 21  2  0
 20 24  1  0
 21 22  1  0
 21 25  1  0
 22 23  1  0
 22 36  1  0
 23 24  2  0
 24 37  1  0
 25 26  2  0
 25 27  1  0
 26 38  1  0
 27 28  2  0
 27 32  1  0
 28 29  1  0
 28 39  1  0
 29 30  2  0
 29 40  1  0
 30 31  1  0
 30 41  1  0
 31 32  2  0
 31 42  1  0
 32 43  1  0
M  END
>  <group_name>  (1) 
JNS

>  <molecule_index>  (1) 
01448

>  <conformer_index>  (1) 
06

>  <method>  (1) 
openff-1.3.0

>  <basis>  (1) 
smirnoff

>  <program>  (1) 
openmm

>  <initial_energy>  (1) 
219.2005318463269 kilocalorie / mole

>  <final_energy>  (1) 
206.26721030903423 kilocalorie / mole

$$$$
