JNS-01795-09
     RDKit          3D

 43 46  0  0  0  0  0  0  0  0999 V2000
   -0.2819    1.7769    0.2071 C   0  0  0  0  0  0  0  0  0  0  0  0
   -0.0511    0.4957   -0.6287 C   0  0  0  0  0  0  0  0  0  0  0  0
   -0.9711   -0.5796   -0.0123 C   0  0  0  0  0  0  0  0  0  0  0  0
   -0.4934    0.7932   -2.0719 C   0  0  0  0  0  0  0  0  0  0  0  0
    1.4429    0.1169   -0.5978 C   0  0  0  0  0  0  0  0  0  0  0  0
    2.3587    1.0663   -0.5949 N   0  0  0  0  0  0  0  0  0  0  0  0
    3.5677    0.4209   -0.4010 C   0  0  0  0  0  0  0  0  0  0  0  0
    3.3965   -0.9418   -0.2945 C   0  0  0  0  0  0  0  0  0  0  0  0
    4.4003   -1.8177   -0.0892 N   0  0  0  0  0  0  0  0  0  0  0  0
    5.6597   -1.3082    0.0195 C   0  0  0  0  0  0  0  0  0  0  0  0
    5.8884    0.0866   -0.0830 C   0  0  0  0  0  0  0  0  0  0  0  0
    4.8308    0.9727   -0.2961 C   0  0  0  0  0  0  0  0  0  0  0  0
    6.8611   -2.2312    0.2606 C   0  0  0  0  0  0  0  0  0  0  0  0
    7.7386   -2.1281   -0.7811 F   0  0  0  0  0  0  0  0  0  0  0  0
    6.5103   -3.5452    0.3948 F   0  0  0  0  0  0  0  0  0  0  0  0
    7.5135   -1.8517    1.3994 F   0  0  0  0  0  0  0  0  0  0  0  0
    2.0468   -1.1529   -0.4757 N   0  0  0  0  0  0  0  0  0  0  0  0
    1.4970   -2.4187   -0.7237 C   0  0  0  0  0  0  0  0  0  0  0  0
    0.8296   -2.6988   -1.9304 C   0  0  0  0  0  0  0  0  0  0  0  0
    0.3001   -3.9720   -2.1473 C   0  0  0  0  0  0  0  0  0  0  0  0
    0.4459   -4.9717   -1.2013 C   0  0  0  0  0  0  0  0  0  0  0  0
   -0.1660   -6.1162   -1.6931 N   0  0  0  0  0  0  0  0  0  0  0  0
   -0.6999   -5.8488   -2.9554 C   0  0  0  0  0  0  0  0  0  0  0  0
   -0.4285   -4.5327   -3.2660 C   0  0  0  0  0  0  0  0  0  0  0  0
    1.1341   -4.7309   -0.0125 C   0  0  0  0  0  0  0  0  0  0  0  0
    1.6648   -3.4529    0.2180 C   0  0  0  0  0  0  0  0  0  0  0  0
    0.0590    1.6274    1.2368 H   0  0  0  0  0  0  0  0  0  0  0  0
    0.2653    2.6265   -0.2147 H   0  0  0  0  0  0  0  0  0  0  0  0
   -1.3424    2.0473    0.2295 H   0  0  0  0  0  0  0  0  0  0  0  0
   -0.6066   -0.8736    0.9773 H   0  0  0  0  0  0  0  0  0  0  0  0
   -1.0338   -1.4686   -0.6418 H   0  0  0  0  0  0  0  0  0  0  0  0
   -1.9926   -0.2013    0.0959 H   0  0  0  0  0  0  0  0  0  0  0  0
    0.1274    1.5843   -2.5055 H   0  0  0  0  0  0  0  0  0  0  0  0
   -0.4066   -0.0931   -2.7030 H   0  0  0  0  0  0  0  0  0  0  0  0
   -1.5371    1.1225   -2.0954 H   0  0  0  0  0  0  0  0  0  0  0  0
    6.9004    0.4699    0.0069 H   0  0  0  0  0  0  0  0  0  0  0  0
    4.9710    2.0468   -0.3763 H   0  0  0  0  0  0  0  0  0  0  0  0
    0.7398   -1.9469   -2.7041 H   0  0  0  0  0  0  0  0  0  0  0  0
   -0.1969   -7.0126   -1.2105 H   0  0  0  0  0  0  0  0  0  0  0  0
   -1.2330   -6.5533   -3.5889 H   0  0  0  0  0  0  0  0  0  0  0  0
   -0.7042   -4.0131   -4.1789 H   0  0  0  0  0  0  0  0  0  0  0  0
    1.2669   -5.5195    0.7211 H   0  0  0  0  0  0  0  0  0  0  0  0
    2.2153   -3.2592    1.1345 H   0  0  0  0  0  0  0  0  0  0  0  0
  1  2  1  0
  1 27  1  0
  1 28  1  0
  1 29  1  0
  2  3  1  0
  2  4  1  0
  2  5  1  0
  3 30  1  0
  3 31  1  0
  3 32  1  0
  4 33  1  0
  4 34  1  0
  4 35  1  0
  5  6  2  0
  5 17  1  0
  6  7  1  0
  7  8  2  0
  7 12  1  0
  8  9  1  0
  8 17  1  0
  9 10  2  0
 10 11  1  0
 10 13  1  0
 11 12  2  0
 11 36  1  0
 12 37  1  0
 13 14  1  0
 13 15  1  0
 13 16  1  0
 17 18  1  0
 18 19  2  0
 18 26  1  0
 19 20  1  0
 19 38  1  0
 20 21  2  0
 20 24  1  0
 21 22  1  0
 21 25  1  0
 22 23  1  0
 22 39  1  0
 23 24  2  0
 23 40  1  0
 24 41  1  0
 25 26  2  0
 25 42  1  0
 26 43  1  0
M  END
>  <group_name>  (1) 
JNS

>  <molecule_index>  (1) 
01795

>  <conformer_index>  (1) 
09

>  <method>  (1) 
openff-1.3.0

>  <basis>  (1) 
smirnoff

>  <program>  (1) 
openmm

>  <initial_energy>  (1) 
169.1450961848387 kilocalorie / mole

>  <final_energy>  (1) 
159.64626565028817 kilocalorie / mole

$$$$
