JNS-01792-05
     RDKit          3D

 40 44  0  0  0  0  0  0  0  0999 V2000
   -0.5538    1.0907   -0.0825 F   0  0  0  0  0  0  0  0  0  0  0  0
   -0.0606   -0.1821   -0.1318 C   0  0  0  0  0  0  0  0  0  0  0  0
   -0.6701   -0.9162    0.8470 F   0  0  0  0  0  0  0  0  0  0  0  0
   -0.4072   -0.7223   -1.3380 F   0  0  0  0  0  0  0  0  0  0  0  0
    1.4676   -0.1518    0.0048 C   0  0  0  0  0  0  0  0  0  0  0  0
    2.0828   -0.7493    1.0631 N   0  0  0  0  0  0  0  0  0  0  0  0
    3.4289   -0.6987    1.1213 C   0  0  0  0  0  0  0  0  0  0  0  0
    4.2023   -0.0599    0.1620 C   0  0  0  0  0  0  0  0  0  0  0  0
    5.5876   -0.1899    0.5424 C   0  0  0  0  0  0  0  0  0  0  0  0
    5.6194   -0.8955    1.7256 C   0  0  0  0  0  0  0  0  0  0  0  0
    6.9078   -1.3138    2.3900 C   0  0  0  0  0  0  0  0  0  0  0  0
    7.9629   -2.0202    1.5444 C   0  0  0  0  0  0  0  0  0  0  0  0
    7.1662   -2.8053    2.5767 C   0  0  0  0  0  0  0  0  0  0  0  0
    4.2965   -1.2073    2.1004 N   0  0  0  0  0  0  0  0  0  0  0  0
    3.9031   -1.9119    3.2583 C   0  0  0  0  0  0  0  0  0  0  0  0
    2.8058   -2.7984    3.2268 C   0  0  0  0  0  0  0  0  0  0  0  0
    2.4334   -3.4922    4.3809 C   0  0  0  0  0  0  0  0  0  0  0  0
    3.1247   -3.3186    5.5656 C   0  0  0  0  0  0  0  0  0  0  0  0
    2.5629   -4.1033    6.5520 N   0  0  0  0  0  0  0  0  0  0  0  0
    1.4466   -4.7038    6.0446 C   0  0  0  0  0  0  0  0  0  0  0  0
    0.6251   -5.2395    6.7763 O   0  0  0  0  0  0  0  0  0  0  0  0
    1.2800   -4.4457    4.5519 C   0  0  0  0  0  0  0  0  0  0  0  0
    4.2003   -2.4403    5.6368 C   0  0  0  0  0  0  0  0  0  0  0  0
    4.5853   -1.7397    4.4835 C   0  0  0  0  0  0  0  0  0  0  0  0
    3.6125    0.5570   -0.9278 C   0  0  0  0  0  0  0  0  0  0  0  0
    2.2224    0.5028   -0.9972 C   0  0  0  0  0  0  0  0  0  0  0  0
    6.4470    0.1769   -0.0113 H   0  0  0  0  0  0  0  0  0  0  0  0
    7.2623   -0.6392    3.1755 H   0  0  0  0  0  0  0  0  0  0  0  0
    9.0138   -1.8119    1.7680 H   0  0  0  0  0  0  0  0  0  0  0  0
    7.7362   -2.2031    0.4890 H   0  0  0  0  0  0  0  0  0  0  0  0
    6.4057   -3.5024    2.2092 H   0  0  0  0  0  0  0  0  0  0  0  0
    7.6851   -3.1194    3.4875 H   0  0  0  0  0  0  0  0  0  0  0  0
    2.2440   -2.9603    2.3118 H   0  0  0  0  0  0  0  0  0  0  0  0
    2.5580   -3.8397    7.5307 H   0  0  0  0  0  0  0  0  0  0  0  0
    1.4179   -5.3634    3.9761 H   0  0  0  0  0  0  0  0  0  0  0  0
    0.3182   -3.9737    4.3371 H   0  0  0  0  0  0  0  0  0  0  0  0
    4.7303   -2.2982    6.5732 H   0  0  0  0  0  0  0  0  0  0  0  0
    5.4069   -1.0365    4.5573 H   0  0  0  0  0  0  0  0  0  0  0  0
    4.2075    1.0580   -1.6868 H   0  0  0  0  0  0  0  0  0  0  0  0
    1.7074    0.9706   -1.8310 H   0  0  0  0  0  0  0  0  0  0  0  0
  1  2  1  0
  2  3  1  0
  2  4  1  0
  2  5  1  0
  5  6  2  0
  5 26  1  0
  6  7  1  0
  7  8  2  0
  7 14  1  0
  8  9  1  0
  8 25  1  0
  9 10  2  0
  9 27  1  0
 10 11  1  0
 10 14  1  0
 11 12  1  0
 11 13  1  0
 11 28  1  0
 12 13  1  0
 12 29  1  0
 12 30  1  0
 13 31  1  0
 13 32  1  0
 14 15  1  0
 15 16  2  0
 15 24  1  0
 16 17  1  0
 16 33  1  0
 17 18  2  0
 17 22  1  0
 18 19  1  0
 18 23  1  0
 19 20  1  0
 19 34  1  0
 20 21  2  0
 20 22  1  0
 22 35  1  0
 22 36  1  0
 23 24  2  0
 23 37  1  0
 24 38  1  0
 25 26  2  0
 25 39  1  0
 26 40  1  0
M  END
>  <group_name>  (1) 
JNS

>  <molecule_index>  (1) 
01792

>  <conformer_index>  (1) 
05

>  <method>  (1) 
openff-1.3.0

>  <basis>  (1) 
smirnoff

>  <program>  (1) 
openmm

>  <initial_energy>  (1) 
130.2690987062476 kilocalorie / mole

>  <final_energy>  (1) 
117.99067261403678 kilocalorie / mole

$$$$
