JNS-01595-01
     RDKit          3D

 39 42  0  0  0  0  0  0  0  0999 V2000
   -0.3965   -1.0279   -1.7011 C   0  0  0  0  0  0  0  0  0  0  0  0
   -0.1350   -0.4085   -0.3213 C   0  0  0  0  0  0  0  0  0  0  0  0
   -0.6168   -1.3636    0.7802 C   0  0  0  0  0  0  0  0  0  0  0  0
    1.3431   -0.0934   -0.1505 C   0  0  0  0  0  0  0  0  0  0  0  0
    2.2344   -1.0579   -0.0747 N   0  0  0  0  0  0  0  0  0  0  0  0
    3.4332   -0.4189    0.1918 C   0  0  0  0  0  0  0  0  0  0  0  0
    3.2704    0.9497    0.2772 C   0  0  0  0  0  0  0  0  0  0  0  0
    4.2764    1.8107    0.5292 N   0  0  0  0  0  0  0  0  0  0  0  0
    5.5209    1.2866    0.7156 C   0  0  0  0  0  0  0  0  0  0  0  0
    5.7360   -0.1115    0.6410 C   0  0  0  0  0  0  0  0  0  0  0  0
    4.6809   -0.9856    0.3748 C   0  0  0  0  0  0  0  0  0  0  0  0
    6.7181    2.1971    1.0182 C   0  0  0  0  0  0  0  0  0  0  0  0
    7.6405    2.0926    0.0164 F   0  0  0  0  0  0  0  0  0  0  0  0
    6.3704    3.5125    1.1460 F   0  0  0  0  0  0  0  0  0  0  0  0
    7.3142    1.8040    2.1829 F   0  0  0  0  0  0  0  0  0  0  0  0
    1.9306    1.1726    0.0220 N   0  0  0  0  0  0  0  0  0  0  0  0
    1.3238    2.4383   -0.0999 C   0  0  0  0  0  0  0  0  0  0  0  0
    1.6809    3.4843    0.7741 C   0  0  0  0  0  0  0  0  0  0  0  0
    1.0768    4.7395    0.6458 C   0  0  0  0  0  0  0  0  0  0  0  0
    0.1443    4.9771   -0.3287 C   0  0  0  0  0  0  0  0  0  0  0  0
   -0.2363    6.2996   -0.1711 N   0  0  0  0  0  0  0  0  0  0  0  0
    0.4206    6.8972    0.8635 N   0  0  0  0  0  0  0  0  0  0  0  0
    1.2183    5.9858    1.3702 C   0  0  0  0  0  0  0  0  0  0  0  0
    2.3911    6.2813    2.8507 Br  0  0  0  0  0  0  0  0  0  0  0  0
   -0.2202    3.9733   -1.2258 C   0  0  0  0  0  0  0  0  0  0  0  0
    0.3760    2.7081   -1.1113 C   0  0  0  0  0  0  0  0  0  0  0  0
    0.1452   -1.9738   -1.8072 H   0  0  0  0  0  0  0  0  0  0  0  0
   -1.4652   -1.2218   -1.8361 H   0  0  0  0  0  0  0  0  0  0  0  0
   -0.0642   -0.3519   -2.4944 H   0  0  0  0  0  0  0  0  0  0  0  0
   -0.7190    0.5094   -0.2286 H   0  0  0  0  0  0  0  0  0  0  0  0
   -1.6899   -1.5532    0.6787 H   0  0  0  0  0  0  0  0  0  0  0  0
   -0.4357   -0.9236    1.7661 H   0  0  0  0  0  0  0  0  0  0  0  0
   -0.0884   -2.3211    0.7255 H   0  0  0  0  0  0  0  0  0  0  0  0
    6.7359   -0.5068    0.7933 H   0  0  0  0  0  0  0  0  0  0  0  0
    4.8116   -2.0621    0.3113 H   0  0  0  0  0  0  0  0  0  0  0  0
    2.4181    3.3250    1.5558 H   0  0  0  0  0  0  0  0  0  0  0  0
   -0.9170    6.7728   -0.7648 H   0  0  0  0  0  0  0  0  0  0  0  0
   -0.9459    4.1709   -2.0086 H   0  0  0  0  0  0  0  0  0  0  0  0
    0.1142    1.9463   -1.8371 H   0  0  0  0  0  0  0  0  0  0  0  0
  1  2  1  0
  1 27  1  0
  1 28  1  0
  1 29  1  0
  2  3  1  0
  2  4  1  0
  2 30  1  0
  3 31  1  0
  3 32  1  0
  3 33  1  0
  4  5  2  0
  4 16  1  0
  5  6  1  0
  6  7  2  0
  6 11  1  0
  7  8  1  0
  7 16  1  0
  8  9  2  0
  9 10  1  0
  9 12  1  0
 10 11  2  0
 10 34  1  0
 11 35  1  0
 12 13  1  0
 12 14  1  0
 12 15  1  0
 16 17  1  0
 17 18  2  0
 17 26  1  0
 18 19  1  0
 18 36  1  0
 19 20  2  0
 19 23  1  0
 20 21  1  0
 20 25  1  0
 21 22  1  0
 21 37  1  0
 22 23  2  0
 23 24  1  0
 25 26  2  0
 25 38  1  0
 26 39  1  0
M  END
>  <group_name>  (1) 
JNS

>  <molecule_index>  (1) 
01595

>  <conformer_index>  (1) 
01

>  <method>  (1) 
openff-1.3.0

>  <basis>  (1) 
smirnoff

>  <program>  (1) 
openmm

>  <initial_energy>  (1) 
157.2113479272527 kilocalorie / mole

>  <final_energy>  (1) 
145.0842677843492 kilocalorie / mole

$$$$
