JNS-01356-04
     RDKit          3D

 33 36  0  0  0  0  0  0  0  0999 V2000
   -1.3748   -3.4566    0.6181 F   0  0  0  0  0  0  0  0  0  0  0  0
   -0.3939   -2.7094    0.0309 C   0  0  0  0  0  0  0  0  0  0  0  0
    0.7327   -2.8726    0.7840 F   0  0  0  0  0  0  0  0  0  0  0  0
   -0.1624   -3.2194   -1.2140 F   0  0  0  0  0  0  0  0  0  0  0  0
   -0.8048   -1.2357   -0.0791 C   0  0  0  0  0  0  0  0  0  0  0  0
   -2.0694   -0.8732   -0.2149 N   0  0  0  0  0  0  0  0  0  0  0  0
   -2.0719    0.5090   -0.1597 C   0  0  0  0  0  0  0  0  0  0  0  0
   -0.7985    1.0082    0.0094 C   0  0  0  0  0  0  0  0  0  0  0  0
   -0.5126    2.3220    0.0937 N   0  0  0  0  0  0  0  0  0  0  0  0
   -1.5530    3.1991    0.0131 C   0  0  0  0  0  0  0  0  0  0  0  0
   -2.8796    2.7332   -0.1559 C   0  0  0  0  0  0  0  0  0  0  0  0
   -3.1527    1.3675   -0.2452 C   0  0  0  0  0  0  0  0  0  0  0  0
   -1.3126    4.7111    0.1094 C   0  0  0  0  0  0  0  0  0  0  0  0
   -2.0554    5.2303    1.1312 F   0  0  0  0  0  0  0  0  0  0  0  0
   -0.0026    5.0276    0.3341 F   0  0  0  0  0  0  0  0  0  0  0  0
   -1.7079    5.3132   -1.0506 F   0  0  0  0  0  0  0  0  0  0  0  0
    0.0299   -0.0990    0.0256 N   0  0  0  0  0  0  0  0  0  0  0  0
    1.4386   -0.0456    0.0176 C   0  0  0  0  0  0  0  0  0  0  0  0
    2.2040   -0.8891   -0.8127 C   0  0  0  0  0  0  0  0  0  0  0  0
    3.5944   -0.7986   -0.7955 C   0  0  0  0  0  0  0  0  0  0  0  0
    4.2492    0.1082    0.0086 C   0  0  0  0  0  0  0  0  0  0  0  0
    5.6120   -0.0254   -0.1826 N   0  0  0  0  0  0  0  0  0  0  0  0
    5.7056   -0.9728   -1.0675 C   0  0  0  0  0  0  0  0  0  0  0  0
    6.9441   -1.3240   -1.4567 O   0  0  0  0  0  0  0  0  0  0  0  0
    4.5171   -1.5065   -1.5030 O   0  0  0  0  0  0  0  0  0  0  0  0
    3.5232    0.9752    0.8334 C   0  0  0  0  0  0  0  0  0  0  0  0
    4.4059    2.2544    1.9524 Br  0  0  0  0  0  0  0  0  0  0  0  0
    2.1213    0.8911    0.8258 C   0  0  0  0  0  0  0  0  0  0  0  0
   -3.6937    3.4497   -0.2172 H   0  0  0  0  0  0  0  0  0  0  0  0
   -4.1587    0.9771   -0.3754 H   0  0  0  0  0  0  0  0  0  0  0  0
    1.7509   -1.6010   -1.4932 H   0  0  0  0  0  0  0  0  0  0  0  0
    7.5148   -0.7364   -0.9419 H   0  0  0  0  0  0  0  0  0  0  0  0
    1.5630    1.5652    1.4691 H   0  0  0  0  0  0  0  0  0  0  0  0
  1  2  1  0
  2  3  1  0
  2  4  1  0
  2  5  1  0
  5  6  2  0
  5 17  1  0
  6  7  1  0
  7  8  2  0
  7 12  1  0
  8  9  1  0
  8 17  1  0
  9 10  2  0
 10 11  1  0
 10 13  1  0
 11 12  2  0
 11 29  1  0
 12 30  1  0
 13 14  1  0
 13 15  1  0
 13 16  1  0
 17 18  1  0
 18 19  2  0
 18 28  1  0
 19 20  1  0
 19 31  1  0
 20 21  2  0
 20 25  1  0
 21 22  1  0
 21 26  1  0
 22 23  2  0
 23 24  1  0
 23 25  1  0
 24 32  1  0
 26 27  1  0
 26 28  2  0
 28 33  1  0
M  END
>  <group_name>  (1) 
JNS

>  <molecule_index>  (1) 
01356

>  <conformer_index>  (1) 
04

>  <method>  (1) 
openff-1.3.0

>  <basis>  (1) 
smirnoff

>  <program>  (1) 
openmm

>  <initial_energy>  (1) 
130.16868498036337 kilocalorie / mole

>  <final_energy>  (1) 
115.18397752280228 kilocalorie / mole

$$$$
