JNS-01792-03
     RDKit          3D

 40 44  0  0  0  0  0  0  0  0999 V2000
   -0.5097    0.5669   -1.0527 F   0  0  0  0  0  0  0  0  0  0  0  0
    0.1217    1.0922    0.0387 C   0  0  0  0  0  0  0  0  0  0  0  0
    0.0896    2.4538   -0.0702 F   0  0  0  0  0  0  0  0  0  0  0  0
   -0.5887    0.7438    1.1534 F   0  0  0  0  0  0  0  0  0  0  0  0
    1.5772    0.6077    0.0794 C   0  0  0  0  0  0  0  0  0  0  0  0
    2.0283   -0.1529    1.1156 N   0  0  0  0  0  0  0  0  0  0  0  0
    3.3204   -0.5386    1.0984 C   0  0  0  0  0  0  0  0  0  0  0  0
    4.1952   -0.2031    0.0764 C   0  0  0  0  0  0  0  0  0  0  0  0
    5.4803   -0.7849    0.3761 C   0  0  0  0  0  0  0  0  0  0  0  0
    5.3533   -1.4688    1.5693 C   0  0  0  0  0  0  0  0  0  0  0  0
    6.4908   -2.1555    2.2947 C   0  0  0  0  0  0  0  0  0  0  0  0
    6.9497   -3.5235    1.7997 C   0  0  0  0  0  0  0  0  0  0  0  0
    7.8667   -2.3184    1.6503 C   0  0  0  0  0  0  0  0  0  0  0  0
    4.0224   -1.3325    2.0175 N   0  0  0  0  0  0  0  0  0  0  0  0
    3.4758   -1.8957    3.1904 C   0  0  0  0  0  0  0  0  0  0  0  0
    3.8443   -3.1882    3.6169 C   0  0  0  0  0  0  0  0  0  0  0  0
    3.2951   -3.7245    4.7846 C   0  0  0  0  0  0  0  0  0  0  0  0
    2.3774   -3.0052    5.5287 C   0  0  0  0  0  0  0  0  0  0  0  0
    1.9752   -3.7479    6.6200 N   0  0  0  0  0  0  0  0  0  0  0  0
    2.5397   -4.9875    6.5321 C   0  0  0  0  0  0  0  0  0  0  0  0
    2.1460   -5.9220    7.2166 O   0  0  0  0  0  0  0  0  0  0  0  0
    3.5300   -5.0892    5.3779 C   0  0  0  0  0  0  0  0  0  0  0  0
    1.9756   -1.7366    5.1264 C   0  0  0  0  0  0  0  0  0  0  0  0
    2.5261   -1.1854    3.9597 C   0  0  0  0  0  0  0  0  0  0  0  0
    3.7734    0.5699   -0.9917 C   0  0  0  0  0  0  0  0  0  0  0  0
    2.4412    0.9764   -0.9788 C   0  0  0  0  0  0  0  0  0  0  0  0
    6.3808   -0.6739   -0.2191 H   0  0  0  0  0  0  0  0  0  0  0  0
    6.4742   -1.9875    3.3770 H   0  0  0  0  0  0  0  0  0  0  0  0
    7.2193   -4.2698    2.5535 H   0  0  0  0  0  0  0  0  0  0  0  0
    6.4776   -3.9203    0.8949 H   0  0  0  0  0  0  0  0  0  0  0  0
    8.7398   -2.2632    2.3083 H   0  0  0  0  0  0  0  0  0  0  0  0
    8.0315   -1.9327    0.6408 H   0  0  0  0  0  0  0  0  0  0  0  0
    4.5279   -3.7920    3.0316 H   0  0  0  0  0  0  0  0  0  0  0  0
    1.0505   -3.6697    7.0283 H   0  0  0  0  0  0  0  0  0  0  0  0
    4.5510   -5.2052    5.7478 H   0  0  0  0  0  0  0  0  0  0  0  0
    3.2530   -5.8931    4.6921 H   0  0  0  0  0  0  0  0  0  0  0  0
    1.2488   -1.1778    5.7076 H   0  0  0  0  0  0  0  0  0  0  0  0
    2.2137   -0.1887    3.6615 H   0  0  0  0  0  0  0  0  0  0  0  0
    4.4503    0.8419   -1.7973 H   0  0  0  0  0  0  0  0  0  0  0  0
    2.0571    1.5842   -1.7925 H   0  0  0  0  0  0  0  0  0  0  0  0
  1  2  1  0
  2  3  1  0
  2  4  1  0
  2  5  1  0
  5  6  2  0
  5 26  1  0
  6  7  1  0
  7  8  2  0
  7 14  1  0
  8  9  1  0
  8 25  1  0
  9 10  2  0
  9 27  1  0
 10 11  1  0
 10 14  1  0
 11 12  1  0
 11 13  1  0
 11 28  1  0
 12 13  1  0
 12 29  1  0
 12 30  1  0
 13 31  1  0
 13 32  1  0
 14 15  1  0
 15 16  2  0
 15 24  1  0
 16 17  1  0
 16 33  1  0
 17 18  2  0
 17 22  1  0
 18 19  1  0
 18 23  1  0
 19 20  1  0
 19 34  1  0
 20 21  2  0
 20 22  1  0
 22 35  1  0
 22 36  1  0
 23 24  2  0
 23 37  1  0
 24 38  1  0
 25 26  2  0
 25 39  1  0
 26 40  1  0
M  END
>  <group_name>  (1) 
JNS

>  <molecule_index>  (1) 
01792

>  <conformer_index>  (1) 
03

>  <method>  (1) 
openff-1.3.0

>  <basis>  (1) 
smirnoff

>  <program>  (1) 
openmm

>  <initial_energy>  (1) 
129.75866184319008 kilocalorie / mole

>  <final_energy>  (1) 
118.21215683502797 kilocalorie / mole

$$$$
