JNS-02466-00
     RDKit          3D

 53 56  0  0  0  0  0  0  0  0999 V2000
    0.6716    1.3408   -2.3396 C   0  0  0  0  0  0  0  0  0  0  0  0
    0.6274    0.5036   -1.0567 C   0  0  2  0  0  0  0  0  0  0  0  0
    1.9716    0.3859   -0.4371 N   0  0  0  0  0  0  0  0  0  0  0  0
    2.3406    1.3260    0.6379 C   0  0  0  0  0  0  0  0  0  0  0  0
    3.8269    1.1922    1.0228 C   0  0  0  0  0  0  0  0  0  0  0  0
    4.3004   -0.2741    1.0149 C   0  0  0  0  0  0  0  0  0  0  0  0
    3.9766   -0.9904   -0.3290 C   0  0  2  0  0  0  0  0  0  0  0  0
    3.0866   -0.1413   -1.2471 C   0  0  0  0  0  0  0  0  0  0  0  0
    3.3066   -2.3483   -0.1641 C   0  0  0  0  0  0  0  0  0  0  0  0
    2.2797   -2.5875    0.7498 C   0  0  0  0  0  0  0  0  0  0  0  0
    1.6652   -3.8510    0.8490 C   0  0  0  0  0  0  0  0  0  0  0  0
    2.0354   -4.8665    0.0231 N   0  0  0  0  0  0  0  0  0  0  0  0
    3.0040   -4.6409   -0.8809 C   0  0  0  0  0  0  0  0  0  0  0  0
    3.3915   -5.7582   -1.8039 C   0  0  0  0  0  0  0  0  0  0  0  0
    3.6647   -3.4149   -0.9805 C   0  0  0  0  0  0  0  0  0  0  0  0
    0.5581   -4.0685    1.8919 C   0  0  0  0  0  0  0  0  0  0  0  0
   -0.1395   -2.9198    2.1449 F   0  0  0  0  0  0  0  0  0  0  0  0
    1.1184   -4.4711    3.0703 F   0  0  0  0  0  0  0  0  0  0  0  0
   -0.3458   -5.0154    1.4999 F   0  0  0  0  0  0  0  0  0  0  0  0
   -0.0111   -0.8701   -1.2932 C   0  0  0  0  0  0  0  0  0  0  0  0
    0.4667   -1.6921   -2.2556 N   0  0  0  0  0  0  0  0  0  0  0  0
   -0.0515   -2.9274   -2.3627 C   0  0  0  0  0  0  0  0  0  0  0  0
   -1.1099   -3.3885   -1.5356 C   0  0  0  0  0  0  0  0  0  0  0  0
   -1.6160   -4.6719   -1.6103 O   0  0  0  0  0  0  0  0  0  0  0  0
   -0.7454   -5.5879   -2.2949 C   0  0  0  0  0  0  0  0  0  0  0  0
   -0.2126   -4.9606   -3.5833 C   0  0  0  0  0  0  0  0  0  0  0  0
    0.5093   -3.7419   -3.3262 O   0  0  0  0  0  0  0  0  0  0  0  0
   -1.6469   -2.5213   -0.5967 C   0  0  0  0  0  0  0  0  0  0  0  0
   -1.0810   -1.2581   -0.4718 C   0  0  0  0  0  0  0  0  0  0  0  0
   -0.3401    1.4719   -2.7343 H   0  0  0  0  0  0  0  0  0  0  0  0
    1.0960    2.3270   -2.1311 H   0  0  0  0  0  0  0  0  0  0  0  0
    1.2782    0.8525   -3.1080 H   0  0  0  0  0  0  0  0  0  0  0  0
   -0.0161    1.0369   -0.3502 H   0  0  0  0  0  0  0  0  0  0  0  0
    1.7148    1.1279    1.5142 H   0  0  0  0  0  0  0  0  0  0  0  0
    2.1518    2.3560    0.3180 H   0  0  0  0  0  0  0  0  0  0  0  0
    3.9959    1.6420    2.0057 H   0  0  0  0  0  0  0  0  0  0  0  0
    4.4294    1.7548    0.3026 H   0  0  0  0  0  0  0  0  0  0  0  0
    3.8375   -0.7905    1.8591 H   0  0  0  0  0  0  0  0  0  0  0  0
    5.3799   -0.3103    1.1916 H   0  0  0  0  0  0  0  0  0  0  0  0
    4.9232   -1.1438   -0.8561 H   0  0  0  0  0  0  0  0  0  0  0  0
    2.7450   -0.7551   -2.0845 H   0  0  0  0  0  0  0  0  0  0  0  0
    3.6571    0.6886   -1.6764 H   0  0  0  0  0  0  0  0  0  0  0  0
    1.9318   -1.7778    1.3813 H   0  0  0  0  0  0  0  0  0  0  0  0
    4.4736   -5.9108   -1.7752 H   0  0  0  0  0  0  0  0  0  0  0  0
    2.8992   -6.6885   -1.5054 H   0  0  0  0  0  0  0  0  0  0  0  0
    3.0888   -5.5120   -2.8254 H   0  0  0  0  0  0  0  0  0  0  0  0
    4.4382   -3.2929   -1.7301 H   0  0  0  0  0  0  0  0  0  0  0  0
    0.0904   -5.8596   -1.6422 H   0  0  0  0  0  0  0  0  0  0  0  0
   -1.2954   -6.5027   -2.5333 H   0  0  0  0  0  0  0  0  0  0  0  0
    0.4514   -5.6733   -4.0813 H   0  0  0  0  0  0  0  0  0  0  0  0
   -1.0489   -4.7543   -4.2588 H   0  0  0  0  0  0  0  0  0  0  0  0
   -2.4591   -2.8496    0.0464 H   0  0  0  0  0  0  0  0  0  0  0  0
   -1.4512   -0.5795    0.2888 H   0  0  0  0  0  0  0  0  0  0  0  0
  1  2  1  0
  1 30  1  0
  1 31  1  0
  1 32  1  0
  2  3  1  0
  2 20  1  0
  2 33  1  1
  3  4  1  0
  3  8  1  0
  4  5  1  0
  4 34  1  0
  4 35  1  0
  5  6  1  0
  5 36  1  0
  5 37  1  0
  6  7  1  0
  6 38  1  0
  6 39  1  0
  7  8  1  0
  7  9  1  0
  7 40  1  6
  8 41  1  0
  8 42  1  0
  9 10  2  0
  9 15  1  0
 10 11  1  0
 10 43  1  0
 11 12  2  0
 11 16  1  0
 12 13  1  0
 13 14  1  0
 13 15  2  0
 14 44  1  0
 14 45  1  0
 14 46  1  0
 15 47  1  0
 16 17  1  0
 16 18  1  0
 16 19  1  0
 20 21  2  0
 20 29  1  0
 21 22  1  0
 22 23  2  0
 22 27  1  0
 23 24  1  0
 23 28  1  0
 24 25  1  0
 25 26  1  0
 25 48  1  0
 25 49  1  0
 26 27  1  0
 26 50  1  0
 26 51  1  0
 28 29  2  0
 28 52  1  0
 29 53  1  0
M  END
>  <group_name>  (1) 
JNS

>  <molecule_index>  (1) 
02466

>  <conformer_index>  (1) 
00

>  <method>  (1) 
openff-1.3.0

>  <basis>  (1) 
smirnoff

>  <program>  (1) 
openmm

>  <initial_energy>  (1) 
117.46225680911488 kilocalorie / mole

>  <final_energy>  (1) 
108.26722960511552 kilocalorie / mole

$$$$
