JNS-01384-08
     RDKit          3D

 36 39  0  0  0  0  0  0  0  0999 V2000
   -0.6259    0.6538   -0.9815 C   0  0  0  0  0  0  0  0  0  0  0  0
    0.0159    0.6811    0.4088 C   0  0  0  0  0  0  0  0  0  0  0  0
    1.4793    0.3102    0.3504 C   0  0  0  0  0  0  0  0  0  0  0  0
    2.3421    1.1570   -0.1622 N   0  0  0  0  0  0  0  0  0  0  0  0
    3.5787    0.5653    0.0301 C   0  0  0  0  0  0  0  0  0  0  0  0
    3.4649   -0.6519    0.6731 C   0  0  0  0  0  0  0  0  0  0  0  0
    4.5153   -1.4383    0.9811 N   0  0  0  0  0  0  0  0  0  0  0  0
    5.7572   -0.9918    0.6379 C   0  0  0  0  0  0  0  0  0  0  0  0
    5.9234    0.2522   -0.0186 C   0  0  0  0  0  0  0  0  0  0  0  0
    4.8219    1.0499   -0.3316 C   0  0  0  0  0  0  0  0  0  0  0  0
    7.0064   -1.8225    0.9586 C   0  0  0  0  0  0  0  0  0  0  0  0
    7.6457   -2.1583   -0.2007 F   0  0  0  0  0  0  0  0  0  0  0  0
    7.8688   -1.0835    1.7176 F   0  0  0  0  0  0  0  0  0  0  0  0
    6.7224   -2.9723    1.6401 F   0  0  0  0  0  0  0  0  0  0  0  0
    2.1083   -0.8380    0.8634 N   0  0  0  0  0  0  0  0  0  0  0  0
    1.5087   -1.9753    1.4405 C   0  0  0  0  0  0  0  0  0  0  0  0
    2.1266   -2.6381    2.5225 C   0  0  0  0  0  0  0  0  0  0  0  0
    1.5233   -3.7610    3.0891 C   0  0  0  0  0  0  0  0  0  0  0  0
    0.3331   -4.2475    2.6022 C   0  0  0  0  0  0  0  0  0  0  0  0
   -0.0506   -5.3550    3.3250 N   0  0  0  0  0  0  0  0  0  0  0  0
    0.9083   -5.4836    4.1963 C   0  0  0  0  0  0  0  0  0  0  0  0
    0.8076   -6.5066    5.0638 O   0  0  0  0  0  0  0  0  0  0  0  0
    1.9139   -4.5490    4.1287 O   0  0  0  0  0  0  0  0  0  0  0  0
   -0.2967   -3.6341    1.5253 C   0  0  0  0  0  0  0  0  0  0  0  0
    0.2942   -2.5008    0.9438 C   0  0  0  0  0  0  0  0  0  0  0  0
   -0.5416   -0.3401   -1.4304 H   0  0  0  0  0  0  0  0  0  0  0  0
   -0.1312    1.3744   -1.6411 H   0  0  0  0  0  0  0  0  0  0  0  0
   -1.6852    0.9190   -0.9113 H   0  0  0  0  0  0  0  0  0  0  0  0
   -0.0680    1.6933    0.8159 H   0  0  0  0  0  0  0  0  0  0  0  0
   -0.5247    0.0172    1.0868 H   0  0  0  0  0  0  0  0  0  0  0  0
    6.9222    0.5879   -0.2818 H   0  0  0  0  0  0  0  0  0  0  0  0
    4.9145    2.0081   -0.8350 H   0  0  0  0  0  0  0  0  0  0  0  0
    3.0663   -2.2898    2.9395 H   0  0  0  0  0  0  0  0  0  0  0  0
   -0.0160   -6.9396    4.8012 H   0  0  0  0  0  0  0  0  0  0  0  0
   -1.2270   -4.0466    1.1479 H   0  0  0  0  0  0  0  0  0  0  0  0
   -0.1921   -2.0582    0.0826 H   0  0  0  0  0  0  0  0  0  0  0  0
  1  2  1  0
  1 26  1  0
  1 27  1  0
  1 28  1  0
  2  3  1  0
  2 29  1  0
  2 30  1  0
  3  4  2  0
  3 15  1  0
  4  5  1  0
  5  6  2  0
  5 10  1  0
  6  7  1  0
  6 15  1  0
  7  8  2  0
  8  9  1  0
  8 11  1  0
  9 10  2  0
  9 31  1  0
 10 32  1  0
 11 12  1  0
 11 13  1  0
 11 14  1  0
 15 16  1  0
 16 17  2  0
 16 25  1  0
 17 18  1  0
 17 33  1  0
 18 19  2  0
 18 23  1  0
 19 20  1  0
 19 24  1  0
 20 21  2  0
 21 22  1  0
 21 23  1  0
 22 34  1  0
 24 25  2  0
 24 35  1  0
 25 36  1  0
M  END
>  <group_name>  (1) 
JNS

>  <molecule_index>  (1) 
01384

>  <conformer_index>  (1) 
08

>  <method>  (1) 
openff-1.3.0

>  <basis>  (1) 
smirnoff

>  <program>  (1) 
openmm

>  <initial_energy>  (1) 
82.29770072538601 kilocalorie / mole

>  <final_energy>  (1) 
69.415120370592 kilocalorie / mole

$$$$
