JNS-01754-02
     RDKit          3D

 31 33  0  0  0  0  0  0  0  0999 V2000
   -4.9155    1.0420    0.7018 F   0  0  0  0  0  0  0  0  0  0  0  0
   -4.3769    0.1719   -0.2026 C   0  0  0  0  0  0  0  0  0  0  0  0
   -4.9608    0.4026   -1.4160 F   0  0  0  0  0  0  0  0  0  0  0  0
   -4.6970   -1.0968    0.1891 F   0  0  0  0  0  0  0  0  0  0  0  0
   -2.8526    0.3340   -0.2309 C   0  0  0  0  0  0  0  0  0  0  0  0
   -2.1317    0.1156    0.9592 C   0  0  0  0  0  0  0  0  0  0  0  0
   -0.7446    0.2487    0.9961 C   0  0  0  0  0  0  0  0  0  0  0  0
   -0.0745    0.6165   -0.1733 C   0  0  0  0  0  0  0  0  0  0  0  0
    1.3283    0.7640   -0.2500 N   0  0  0  0  0  0  0  0  0  0  0  0
    2.2170    1.0308    0.7897 C   0  0  0  0  0  0  0  0  0  0  0  0
    1.8693    1.3220    2.0100 N   0  0  0  0  0  0  0  0  0  0  0  0
    2.9740    1.5755    2.8161 C   0  0  0  0  0  0  0  0  0  0  0  0
    4.1803    1.4817    2.1615 C   0  0  0  0  0  0  0  0  0  0  0  0
    3.9512    1.0592    0.4835 S   0  0  0  0  0  0  0  0  0  0  0  0
    2.8075    1.9158    4.2330 C   0  0  0  0  0  0  0  0  0  0  0  0
    1.5325    2.1086    4.7770 C   0  0  0  0  0  0  0  0  0  0  0  0
    1.4367    2.4297    6.1260 C   0  0  0  0  0  0  0  0  0  0  0  0
    2.5946    2.5503    6.8957 C   0  0  0  0  0  0  0  0  0  0  0  0
    3.8274    2.3671    6.3914 N   0  0  0  0  0  0  0  0  0  0  0  0
    3.9163    2.0556    5.0843 C   0  0  0  0  0  0  0  0  0  0  0  0
   -0.8616    0.8032   -1.3316 C   0  0  0  0  0  0  0  0  0  0  0  0
   -2.2036    0.6735   -1.3765 N   0  0  0  0  0  0  0  0  0  0  0  0
   -2.6657   -0.1658    1.8624 H   0  0  0  0  0  0  0  0  0  0  0  0
   -0.2204    0.0470    1.9241 H   0  0  0  0  0  0  0  0  0  0  0  0
    1.7430    0.8207   -1.1755 H   0  0  0  0  0  0  0  0  0  0  0  0
    5.1521    1.6502    2.6083 H   0  0  0  0  0  0  0  0  0  0  0  0
    0.6344    2.0155    4.1695 H   0  0  0  0  0  0  0  0  0  0  0  0
    0.4680    2.5892    6.5875 H   0  0  0  0  0  0  0  0  0  0  0  0
    2.4969    2.8025    7.9474 H   0  0  0  0  0  0  0  0  0  0  0  0
    4.9182    1.9061    4.6969 H   0  0  0  0  0  0  0  0  0  0  0  0
   -0.3573    1.0745   -2.2540 H   0  0  0  0  0  0  0  0  0  0  0  0
  1  2  1  0
  2  3  1  0
  2  4  1  0
  2  5  1  0
  5  6  2  0
  5 22  1  0
  6  7  1  0
  6 23  1  0
  7  8  2  0
  7 24  1  0
  8  9  1  0
  8 21  1  0
  9 10  1  0
  9 25  1  0
 10 11  2  0
 10 14  1  0
 11 12  1  0
 12 13  2  0
 12 15  1  0
 13 14  1  0
 13 26  1  0
 15 16  2  0
 15 20  1  0
 16 17  1  0
 16 27  1  0
 17 18  2  0
 17 28  1  0
 18 19  1  0
 18 29  1  0
 19 20  2  0
 20 30  1  0
 21 22  2  0
 21 31  1  0
M  END
>  <group_name>  (1) 
JNS

>  <molecule_index>  (1) 
01754

>  <conformer_index>  (1) 
02

>  <method>  (1) 
openff-1.3.0

>  <basis>  (1) 
smirnoff

>  <program>  (1) 
openmm

>  <initial_energy>  (1) 
69.32392151183096 kilocalorie / mole

>  <final_energy>  (1) 
63.808819140488374 kilocalorie / mole

$$$$
