JNS-01494-00
     RDKit          3D

 42 45  0  0  0  0  0  0  0  0999 V2000
   -1.5885   -0.9275    2.2032 C   0  0  0  0  0  0  0  0  0  0  0  0
   -0.1117   -0.8173    1.8155 C   0  0  0  0  0  0  0  0  0  0  0  0
    0.1145   -0.0765    0.4802 C   0  0  2  0  0  0  0  0  0  0  0  0
   -0.4686   -0.8505   -0.7141 C   0  0  0  0  0  0  0  0  0  0  0  0
    1.6042    0.1430    0.2618 C   0  0  0  0  0  0  0  0  0  0  0  0
    2.4454   -0.8688    0.2707 N   0  0  0  0  0  0  0  0  0  0  0  0
    3.6997   -0.2942    0.1604 C   0  0  0  0  0  0  0  0  0  0  0  0
    3.6228    1.0822    0.0823 C   0  0  0  0  0  0  0  0  0  0  0  0
    4.6979    1.8885   -0.0284 N   0  0  0  0  0  0  0  0  0  0  0  0
    5.9260    1.2974   -0.0594 C   0  0  0  0  0  0  0  0  0  0  0  0
    6.0544   -0.1109    0.0207 C   0  0  0  0  0  0  0  0  0  0  0  0
    4.9281   -0.9275    0.1323 C   0  0  0  0  0  0  0  0  0  0  0  0
    7.2006    2.1438   -0.1731 C   0  0  0  0  0  0  0  0  0  0  0  0
    8.0370    1.8614    0.8694 F   0  0  0  0  0  0  0  0  0  0  0  0
    6.9522    3.4878   -0.1603 F   0  0  0  0  0  0  0  0  0  0  0  0
    7.8541    1.8396   -1.3331 F   0  0  0  0  0  0  0  0  0  0  0  0
    2.2715    1.3721    0.1102 N   0  0  0  0  0  0  0  0  0  0  0  0
    1.7089    2.6521   -0.0660 C   0  0  0  0  0  0  0  0  0  0  0  0
    0.5622    2.8484   -0.8630 C   0  0  0  0  0  0  0  0  0  0  0  0
    0.0323    4.1333   -1.0164 C   0  0  0  0  0  0  0  0  0  0  0  0
    0.6183    5.2160   -0.4173 C   0  0  0  0  0  0  0  0  0  0  0  0
   -0.1486    6.3102   -0.7812 N   0  0  0  0  0  0  0  0  0  0  0  0
   -1.1909    5.9526   -1.5865 N   0  0  0  0  0  0  0  0  0  0  0  0
   -1.1035    4.6525   -1.7464 C   0  0  0  0  0  0  0  0  0  0  0  0
    1.7657    5.0650    0.3601 C   0  0  0  0  0  0  0  0  0  0  0  0
    2.3087    3.7829    0.5297 C   0  0  0  0  0  0  0  0  0  0  0  0
   -2.1312   -1.5680    1.5022 H   0  0  0  0  0  0  0  0  0  0  0  0
   -2.0556    0.0621    2.2200 H   0  0  0  0  0  0  0  0  0  0  0  0
   -1.6765   -1.3685    3.2008 H   0  0  0  0  0  0  0  0  0  0  0  0
    0.3233   -1.8214    1.7676 H   0  0  0  0  0  0  0  0  0  0  0  0
    0.4108   -0.2737    2.6100 H   0  0  0  0  0  0  0  0  0  0  0  0
   -0.3875    0.8901    0.5548 H   0  0  0  0  0  0  0  0  0  0  0  0
   -1.5567   -0.9276   -0.6374 H   0  0  0  0  0  0  0  0  0  0  0  0
   -0.0465   -1.8599   -0.7602 H   0  0  0  0  0  0  0  0  0  0  0  0
   -0.2330   -0.3384   -1.6519 H   0  0  0  0  0  0  0  0  0  0  0  0
    7.0429   -0.5597   -0.0054 H   0  0  0  0  0  0  0  0  0  0  0  0
    4.9912   -2.0101    0.1962 H   0  0  0  0  0  0  0  0  0  0  0  0
    0.0936    2.0219   -1.3854 H   0  0  0  0  0  0  0  0  0  0  0  0
    0.0529    7.2675   -0.4908 H   0  0  0  0  0  0  0  0  0  0  0  0
   -1.7872    4.0534   -2.3403 H   0  0  0  0  0  0  0  0  0  0  0  0
    2.2385    5.9241    0.8260 H   0  0  0  0  0  0  0  0  0  0  0  0
    3.2023    3.6702    1.1370 H   0  0  0  0  0  0  0  0  0  0  0  0
  1  2  1  0
  1 27  1  0
  1 28  1  0
  1 29  1  0
  2  3  1  0
  2 30  1  0
  2 31  1  0
  3  4  1  0
  3  5  1  0
  3 32  1  1
  4 33  1  0
  4 34  1  0
  4 35  1  0
  5  6  2  0
  5 17  1  0
  6  7  1  0
  7  8  2  0
  7 12  1  0
  8  9  1  0
  8 17  1  0
  9 10  2  0
 10 11  1  0
 10 13  1  0
 11 12  2  0
 11 36  1  0
 12 37  1  0
 13 14  1  0
 13 15  1  0
 13 16  1  0
 17 18  1  0
 18 19  2  0
 18 26  1  0
 19 20  1  0
 19 38  1  0
 20 21  2  0
 20 24  1  0
 21 22  1  0
 21 25  1  0
 22 23  1  0
 22 39  1  0
 23 24  2  0
 24 40  1  0
 25 26  2  0
 25 41  1  0
 26 42  1  0
M  END
>  <group_name>  (1) 
JNS

>  <molecule_index>  (1) 
01494

>  <conformer_index>  (1) 
00

>  <method>  (1) 
openff-1.3.0

>  <basis>  (1) 
smirnoff

>  <program>  (1) 
openmm

>  <initial_energy>  (1) 
162.93321255485603 kilocalorie / mole

>  <final_energy>  (1) 
150.56511733443196 kilocalorie / mole

$$$$
