JNS-02536-06
     RDKit          3D

 44 47  0  0  0  0  0  0  0  0999 V2000
   -5.3931   -4.8357   -0.9557 C   0  0  0  0  0  0  0  0  0  0  0  0
   -4.6223   -3.5443   -0.8678 C   0  0  0  0  0  0  0  0  0  0  0  0
   -5.2195   -2.3911   -0.3468 C   0  0  0  0  0  0  0  0  0  0  0  0
   -4.4944   -1.1978   -0.2466 C   0  0  0  0  0  0  0  0  0  0  0  0
   -3.1539   -1.1261   -0.6594 C   0  0  0  0  0  0  0  0  0  0  0  0
   -2.5586   -2.2950   -1.1690 C   0  0  0  0  0  0  0  0  0  0  0  0
   -3.2834   -3.4881   -1.2700 C   0  0  0  0  0  0  0  0  0  0  0  0
   -2.4317    0.0782   -0.5365 N   0  0  0  0  0  0  0  0  0  0  0  0
   -1.3442    0.3886   -1.3628 C   0  0  0  0  0  0  0  0  0  0  0  0
   -1.2312    0.0355   -2.9938 S   0  0  0  0  0  0  0  0  0  0  0  0
   -0.3936    1.1527   -0.7220 N   0  0  0  0  0  0  0  0  0  0  0  0
   -0.8513    1.3628    0.5439 C   0  0  0  0  0  0  0  0  0  0  0  0
   -0.2950    2.0931    1.3626 O   0  0  0  0  0  0  0  0  0  0  0  0
   -2.2369    0.7455    0.7674 C   0  0  0  0  0  0  0  0  0  0  0  0
   -3.2755    1.7556    1.2521 C   0  0  0  0  0  0  0  0  0  0  0  0
   -3.1588    1.1284    2.6448 C   0  0  0  0  0  0  0  0  0  0  0  0
   -2.3532   -0.0426    2.0746 C   0  0  0  0  0  0  0  0  0  0  0  0
    0.9265    0.8098   -0.8976 C   0  0  0  0  0  0  0  0  0  0  0  0
    1.4694   -0.0830   -0.0563 N   0  0  0  0  0  0  0  0  0  0  0  0
    2.7723   -0.4526   -0.2159 C   0  0  0  0  0  0  0  0  0  0  0  0
    3.5513    0.0930   -1.2733 C   0  0  0  0  0  0  0  0  0  0  0  0
    2.9725    1.0094   -2.1509 C   0  0  0  0  0  0  0  0  0  0  0  0
    1.6452    1.3633   -1.9537 C   0  0  0  0  0  0  0  0  0  0  0  0
    4.9175   -0.2665   -1.4796 C   0  0  0  0  0  0  0  0  0  0  0  0
    6.0332   -0.5443   -1.6686 N   0  0  0  0  0  0  0  0  0  0  0  0
    3.3784   -1.4749    0.7654 C   0  0  0  0  0  0  0  0  0  0  0  0
    2.4770   -1.8893    1.7064 F   0  0  0  0  0  0  0  0  0  0  0  0
    4.4365   -0.9307    1.4357 F   0  0  0  0  0  0  0  0  0  0  0  0
    3.7950   -2.5910    0.0973 F   0  0  0  0  0  0  0  0  0  0  0  0
   -6.1803   -4.8673   -0.1964 H   0  0  0  0  0  0  0  0  0  0  0  0
   -4.7283   -5.6899   -0.7953 H   0  0  0  0  0  0  0  0  0  0  0  0
   -5.8529   -4.9277   -1.9442 H   0  0  0  0  0  0  0  0  0  0  0  0
   -6.2559   -2.4155   -0.0224 H   0  0  0  0  0  0  0  0  0  0  0  0
   -4.9940   -0.3212    0.1467 H   0  0  0  0  0  0  0  0  0  0  0  0
   -1.5188   -2.3005   -1.4808 H   0  0  0  0  0  0  0  0  0  0  0  0
   -2.7960   -4.3746   -1.6660 H   0  0  0  0  0  0  0  0  0  0  0  0
   -2.9671    2.8049    1.1907 H   0  0  0  0  0  0  0  0  0  0  0  0
   -4.2658    1.6365    0.8056 H   0  0  0  0  0  0  0  0  0  0  0  0
   -4.1151    0.8428    3.0946 H   0  0  0  0  0  0  0  0  0  0  0  0
   -2.5851    1.7430    3.3475 H   0  0  0  0  0  0  0  0  0  0  0  0
   -2.9376   -0.9649    2.0077 H   0  0  0  0  0  0  0  0  0  0  0  0
   -1.4016   -0.2424    2.5794 H   0  0  0  0  0  0  0  0  0  0  0  0
    3.5434    1.4366   -2.9736 H   0  0  0  0  0  0  0  0  0  0  0  0
    1.1487    2.0649   -2.6161 H   0  0  0  0  0  0  0  0  0  0  0  0
  1  2  1  0
  1 30  1  0
  1 31  1  0
  1 32  1  0
  2  3  2  0
  2  7  1  0
  3  4  1  0
  3 33  1  0
  4  5  2  0
  4 34  1  0
  5  6  1  0
  5  8  1  0
  6  7  2  0
  6 35  1  0
  7 36  1  0
  8  9  1  0
  8 14  1  0
  9 10  2  0
  9 11  1  0
 11 12  1  0
 11 18  1  0
 12 13  2  0
 12 14  1  0
 14 15  1  0
 14 17  1  0
 15 16  1  0
 15 37  1  0
 15 38  1  0
 16 17  1  0
 16 39  1  0
 16 40  1  0
 17 41  1  0
 17 42  1  0
 18 19  2  0
 18 23  1  0
 19 20  1  0
 20 21  2  0
 20 26  1  0
 21 22  1  0
 21 24  1  0
 22 23  2  0
 22 43  1  0
 23 44  1  0
 24 25  3  0
 26 27  1  0
 26 28  1  0
 26 29  1  0
M  END
>  <group_name>  (1) 
JNS

>  <molecule_index>  (1) 
02536

>  <conformer_index>  (1) 
06

>  <method>  (1) 
openff-1.3.0

>  <basis>  (1) 
smirnoff

>  <program>  (1) 
openmm

>  <initial_energy>  (1) 
74.06185706100851 kilocalorie / mole

>  <final_energy>  (1) 
59.17272074798043 kilocalorie / mole

$$$$
