JNS-01554-07
     RDKit          3D

 35 38  0  0  0  0  0  0  0  0999 V2000
   -0.9195   -0.1691    0.3003 F   0  0  0  0  0  0  0  0  0  0  0  0
    0.0094   -0.8257   -0.4526 C   0  0  0  0  0  0  0  0  0  0  0  0
   -0.2843   -0.6696   -1.7758 F   0  0  0  0  0  0  0  0  0  0  0  0
    1.3638   -0.3577   -0.1291 N   0  0  0  0  0  0  0  0  0  0  0  0
    2.2126   -1.1162    0.6197 N   0  0  0  0  0  0  0  0  0  0  0  0
    3.3723   -0.5275    0.5107 C   0  0  0  0  0  0  0  0  0  0  0  0
    4.5653   -0.9204    1.0938 C   0  0  0  0  0  0  0  0  0  0  0  0
    5.6834   -0.1284    0.8339 C   0  0  0  0  0  0  0  0  0  0  0  0
    5.5854    1.0195    0.0113 C   0  0  0  0  0  0  0  0  0  0  0  0
    4.3957    1.3791   -0.5483 N   0  0  0  0  0  0  0  0  0  0  0  0
    3.3252    0.6036   -0.2884 C   0  0  0  0  0  0  0  0  0  0  0  0
    2.0260    0.7359   -0.7028 C   0  0  0  0  0  0  0  0  0  0  0  0
    1.4952    1.8044   -1.5690 C   0  0  0  0  0  0  0  0  0  0  0  0
    2.2478    2.2588   -2.6729 C   0  0  0  0  0  0  0  0  0  0  0  0
    1.7675    3.2711   -3.5159 C   0  0  0  0  0  0  0  0  0  0  0  0
    2.7138    3.8141   -4.8768 Cl  0  0  0  0  0  0  0  0  0  0  0  0
    0.5188    3.8300   -3.2405 C   0  0  0  0  0  0  0  0  0  0  0  0
   -0.1617    4.8308   -3.9065 N   0  0  0  0  0  0  0  0  0  0  0  0
   -1.2826    5.1489   -3.1979 C   0  0  0  0  0  0  0  0  0  0  0  0
   -1.9232    6.1666   -3.4204 O   0  0  0  0  0  0  0  0  0  0  0  0
   -1.5016    4.2056   -2.0212 C   0  0  0  0  0  0  0  0  0  0  0  0
   -0.2253    3.4128   -2.1488 C   0  0  0  0  0  0  0  0  0  0  0  0
    0.2512    2.4075   -1.3032 C   0  0  0  0  0  0  0  0  0  0  0  0
    6.8493    1.8479   -0.2417 C   0  0  0  0  0  0  0  0  0  0  0  0
    7.3205    2.3431    0.9408 F   0  0  0  0  0  0  0  0  0  0  0  0
    7.8206    1.0544   -0.7832 F   0  0  0  0  0  0  0  0  0  0  0  0
    6.6396    2.8975   -1.0915 F   0  0  0  0  0  0  0  0  0  0  0  0
   -0.0383   -1.8924   -0.2158 H   0  0  0  0  0  0  0  0  0  0  0  0
    4.6182   -1.8046    1.7234 H   0  0  0  0  0  0  0  0  0  0  0  0
    6.6426   -0.3935    1.2678 H   0  0  0  0  0  0  0  0  0  0  0  0
    3.2201    1.8225   -2.8859 H   0  0  0  0  0  0  0  0  0  0  0  0
    0.3089    5.5517   -4.4432 H   0  0  0  0  0  0  0  0  0  0  0  0
   -2.3877    3.5866   -2.1784 H   0  0  0  0  0  0  0  0  0  0  0  0
   -1.5558    4.7594   -1.0809 H   0  0  0  0  0  0  0  0  0  0  0  0
   -0.3350    2.1222   -0.4362 H   0  0  0  0  0  0  0  0  0  0  0  0
  1  2  1  0
  2  3  1  0
  2  4  1  0
  2 28  1  0
  4  5  1  0
  4 12  1  0
  5  6  2  0
  6  7  1  0
  6 11  1  0
  7  8  2  0
  7 29  1  0
  8  9  1  0
  8 30  1  0
  9 10  2  0
  9 24  1  0
 10 11  1  0
 11 12  2  0
 12 13  1  0
 13 14  2  0
 13 23  1  0
 14 15  1  0
 14 31  1  0
 15 16  1  0
 15 17  2  0
 17 18  1  0
 17 22  1  0
 18 19  1  0
 18 32  1  0
 19 20  2  0
 19 21  1  0
 21 22  1  0
 21 33  1  0
 21 34  1  0
 22 23  2  0
 23 35  1  0
 24 25  1  0
 24 26  1  0
 24 27  1  0
M  END
>  <group_name>  (1) 
JNS

>  <molecule_index>  (1) 
01554

>  <conformer_index>  (1) 
07

>  <method>  (1) 
openff-1.3.0

>  <basis>  (1) 
smirnoff

>  <program>  (1) 
openmm

>  <initial_energy>  (1) 
104.89594665660468 kilocalorie / mole

>  <final_energy>  (1) 
91.46932801678115 kilocalorie / mole

$$$$
