JNS-01581-07
     RDKit          3D

 40 44  0  0  0  0  0  0  0  0999 V2000
   -0.7325   -0.3589   -1.0442 F   0  0  0  0  0  0  0  0  0  0  0  0
    0.2531   -1.3038   -1.0789 C   0  0  0  0  0  0  0  0  0  0  0  0
   -0.1518   -2.3725   -0.3296 F   0  0  0  0  0  0  0  0  0  0  0  0
    0.3908   -1.7226   -2.3719 F   0  0  0  0  0  0  0  0  0  0  0  0
    1.5725   -0.6928   -0.5894 C   0  0  0  0  0  0  0  0  0  0  0  0
    2.2004   -1.1839    0.5167 N   0  0  0  0  0  0  0  0  0  0  0  0
    3.3599   -0.6023    0.8828 C   0  0  0  0  0  0  0  0  0  0  0  0
    3.9341    0.4583    0.2096 C   0  0  0  0  0  0  0  0  0  0  0  0
    3.3254    0.9819   -0.9159 C   0  0  0  0  0  0  0  0  0  0  0  0
    2.1260    0.3903   -1.3151 C   0  0  0  0  0  0  0  0  0  0  0  0
    5.1182    0.8589    0.8050 N   0  0  0  0  0  0  0  0  0  0  0  0
    5.2732    0.0505    1.8290 C   0  0  0  0  0  0  0  0  0  0  0  0
    6.5261    0.1092    2.6842 C   0  0  0  0  0  0  0  0  0  0  0  0
    7.8239    0.5253    1.9785 C   0  0  0  0  0  0  0  0  0  0  0  0
    8.5489   -0.6541    2.6110 C   0  0  0  0  0  0  0  0  0  0  0  0
    7.2006   -1.2259    3.0257 C   0  0  0  0  0  0  0  0  0  0  0  0
    4.1998   -0.8490    1.9521 N   0  0  0  0  0  0  0  0  0  0  0  0
    3.9524   -1.7621    2.9961 C   0  0  0  0  0  0  0  0  0  0  0  0
    4.2515   -1.4395    4.3359 C   0  0  0  0  0  0  0  0  0  0  0  0
    4.0032   -2.3720    5.3470 C   0  0  0  0  0  0  0  0  0  0  0  0
    3.4590   -3.5946    5.0562 C   0  0  0  0  0  0  0  0  0  0  0  0
    3.3430   -4.2578    6.2651 N   0  0  0  0  0  0  0  0  0  0  0  0
    3.7932   -3.4951    7.3043 N   0  0  0  0  0  0  0  0  0  0  0  0
    4.1908   -2.3582    6.7818 C   0  0  0  0  0  0  0  0  0  0  0  0
    3.1298   -3.9483    3.7477 C   0  0  0  0  0  0  0  0  0  0  0  0
    2.4305   -5.5050    3.3930 Cl  0  0  0  0  0  0  0  0  0  0  0  0
    3.3762   -3.0225    2.7239 C   0  0  0  0  0  0  0  0  0  0  0  0
    3.7759    1.8142   -1.4491 H   0  0  0  0  0  0  0  0  0  0  0  0
    1.6084    0.7648   -2.1932 H   0  0  0  0  0  0  0  0  0  0  0  0
    6.3543    0.7269    3.5703 H   0  0  0  0  0  0  0  0  0  0  0  0
    7.7808    0.4538    0.8859 H   0  0  0  0  0  0  0  0  0  0  0  0
    8.2036    1.5101    2.2692 H   0  0  0  0  0  0  0  0  0  0  0  0
    9.1114   -1.2753    1.9065 H   0  0  0  0  0  0  0  0  0  0  0  0
    9.1820   -0.3717    3.4587 H   0  0  0  0  0  0  0  0  0  0  0  0
    7.1355   -1.5190    4.0785 H   0  0  0  0  0  0  0  0  0  0  0  0
    6.8803   -2.0570    2.3874 H   0  0  0  0  0  0  0  0  0  0  0  0
    4.6516   -0.4675    4.6021 H   0  0  0  0  0  0  0  0  0  0  0  0
    2.9527   -5.1973    6.3559 H   0  0  0  0  0  0  0  0  0  0  0  0
    4.6033   -1.5276    7.3469 H   0  0  0  0  0  0  0  0  0  0  0  0
    3.1210   -3.3020    1.7061 H   0  0  0  0  0  0  0  0  0  0  0  0
  1  2  1  0
  2  3  1  0
  2  4  1  0
  2  5  1  0
  5  6  2  0
  5 10  1  0
  6  7  1  0
  7  8  2  0
  7 17  1  0
  8  9  1  0
  8 11  1  0
  9 10  2  0
  9 28  1  0
 10 29  1  0
 11 12  2  0
 12 13  1  0
 12 17  1  0
 13 14  1  0
 13 16  1  0
 13 30  1  0
 14 15  1  0
 14 31  1  0
 14 32  1  0
 15 16  1  0
 15 33  1  0
 15 34  1  0
 16 35  1  0
 16 36  1  0
 17 18  1  0
 18 19  2  0
 18 27  1  0
 19 20  1  0
 19 37  1  0
 20 21  2  0
 20 24  1  0
 21 22  1  0
 21 25  1  0
 22 23  1  0
 22 38  1  0
 23 24  2  0
 24 39  1  0
 25 26  1  0
 25 27  2  0
 27 40  1  0
M  END
>  <group_name>  (1) 
JNS

>  <molecule_index>  (1) 
01581

>  <conformer_index>  (1) 
07

>  <method>  (1) 
openff-1.3.0

>  <basis>  (1) 
smirnoff

>  <program>  (1) 
openmm

>  <initial_energy>  (1) 
193.07029726823131 kilocalorie / mole

>  <final_energy>  (1) 
180.2635488862525 kilocalorie / mole

$$$$
