JNS-01795-04
     RDKit          3D

 43 46  0  0  0  0  0  0  0  0999 V2000
   -0.2237    1.1115    1.5058 C   0  0  0  0  0  0  0  0  0  0  0  0
   -0.1024    0.1446    0.3042 C   0  0  0  0  0  0  0  0  0  0  0  0
   -0.8703    0.7664   -0.8752 C   0  0  0  0  0  0  0  0  0  0  0  0
   -0.7938   -1.1630    0.7456 C   0  0  0  0  0  0  0  0  0  0  0  0
    1.3824   -0.0405   -0.0664 C   0  0  0  0  0  0  0  0  0  0  0  0
    2.2144    0.9779    0.0364 N   0  0  0  0  0  0  0  0  0  0  0  0
    3.4746    0.4589   -0.2043 C   0  0  0  0  0  0  0  0  0  0  0  0
    3.4177   -0.8918   -0.4695 C   0  0  0  0  0  0  0  0  0  0  0  0
    4.4954   -1.6594   -0.7271 N   0  0  0  0  0  0  0  0  0  0  0  0
    5.7129   -1.0469   -0.7201 C   0  0  0  0  0  0  0  0  0  0  0  0
    5.8247    0.3403   -0.4529 C   0  0  0  0  0  0  0  0  0  0  0  0
    4.6923    1.1132   -0.1892 C   0  0  0  0  0  0  0  0  0  0  0  0
    6.9938   -1.8446   -0.9963 C   0  0  0  0  0  0  0  0  0  0  0  0
    6.7651   -3.1785   -1.1870 F   0  0  0  0  0  0  0  0  0  0  0  0
    7.8559   -1.7120    0.0552 F   0  0  0  0  0  0  0  0  0  0  0  0
    7.6117   -1.3539   -2.1113 F   0  0  0  0  0  0  0  0  0  0  0  0
    2.0774   -1.2108   -0.4398 N   0  0  0  0  0  0  0  0  0  0  0  0
    1.5676   -2.4193   -0.9355 C   0  0  0  0  0  0  0  0  0  0  0  0
    0.6694   -2.4409   -2.0184 C   0  0  0  0  0  0  0  0  0  0  0  0
    0.1867   -3.6624   -2.4911 C   0  0  0  0  0  0  0  0  0  0  0  0
    0.6007   -4.8557   -1.9252 C   0  0  0  0  0  0  0  0  0  0  0  0
   -0.0311   -5.8899   -2.6018 N   0  0  0  0  0  0  0  0  0  0  0  0
   -0.8463   -5.3573   -3.6026 C   0  0  0  0  0  0  0  0  0  0  0  0
   -0.7339   -3.9833   -3.5617 C   0  0  0  0  0  0  0  0  0  0  0  0
    1.5176   -4.8642   -0.8745 C   0  0  0  0  0  0  0  0  0  0  0  0
    2.0042   -3.6417   -0.3880 C   0  0  0  0  0  0  0  0  0  0  0  0
   -1.2680    1.2323    1.8109 H   0  0  0  0  0  0  0  0  0  0  0  0
    0.1621    2.1046    1.2529 H   0  0  0  0  0  0  0  0  0  0  0  0
    0.3449    0.7309    2.3607 H   0  0  0  0  0  0  0  0  0  0  0  0
   -1.9122    0.9578   -0.5991 H   0  0  0  0  0  0  0  0  0  0  0  0
   -0.4120    1.7161   -1.1702 H   0  0  0  0  0  0  0  0  0  0  0  0
   -0.8689    0.1030   -1.7419 H   0  0  0  0  0  0  0  0  0  0  0  0
   -1.7882   -0.9578    1.1547 H   0  0  0  0  0  0  0  0  0  0  0  0
   -0.2021   -1.6675    1.5163 H   0  0  0  0  0  0  0  0  0  0  0  0
   -0.9374   -1.8480   -0.0915 H   0  0  0  0  0  0  0  0  0  0  0  0
    6.8053    0.8069   -0.4525 H   0  0  0  0  0  0  0  0  0  0  0  0
    4.7431    2.1773    0.0223 H   0  0  0  0  0  0  0  0  0  0  0  0
    0.3637   -1.5239   -2.5062 H   0  0  0  0  0  0  0  0  0  0  0  0
    0.1020   -6.8804   -2.4056 H   0  0  0  0  0  0  0  0  0  0  0  0
   -1.4603   -5.9232   -4.2987 H   0  0  0  0  0  0  0  0  0  0  0  0
   -1.2366   -3.2731   -4.2117 H   0  0  0  0  0  0  0  0  0  0  0  0
    1.8586   -5.8000   -0.4434 H   0  0  0  0  0  0  0  0  0  0  0  0
    2.7300   -3.6380    0.4206 H   0  0  0  0  0  0  0  0  0  0  0  0
  1  2  1  0
  1 27  1  0
  1 28  1  0
  1 29  1  0
  2  3  1  0
  2  4  1  0
  2  5  1  0
  3 30  1  0
  3 31  1  0
  3 32  1  0
  4 33  1  0
  4 34  1  0
  4 35  1  0
  5  6  2  0
  5 17  1  0
  6  7  1  0
  7  8  2  0
  7 12  1  0
  8  9  1  0
  8 17  1  0
  9 10  2  0
 10 11  1  0
 10 13  1  0
 11 12  2  0
 11 36  1  0
 12 37  1  0
 13 14  1  0
 13 15  1  0
 13 16  1  0
 17 18  1  0
 18 19  2  0
 18 26  1  0
 19 20  1  0
 19 38  1  0
 20 21  2  0
 20 24  1  0
 21 22  1  0
 21 25  1  0
 22 23  1  0
 22 39  1  0
 23 24  2  0
 23 40  1  0
 24 41  1  0
 25 26  2  0
 25 42  1  0
 26 43  1  0
M  END
>  <group_name>  (1) 
JNS

>  <molecule_index>  (1) 
01795

>  <conformer_index>  (1) 
04

>  <method>  (1) 
openff-1.3.0

>  <basis>  (1) 
smirnoff

>  <program>  (1) 
openmm

>  <initial_energy>  (1) 
169.15038801605874 kilocalorie / mole

>  <final_energy>  (1) 
159.64625814713372 kilocalorie / mole

$$$$
