JNS-00129-05
     RDKit          3D

 31 33  0  0  0  0  0  0  0  0999 V2000
    0.2489   -1.6974    1.6337 N   0  0  0  0  0  0  0  0  0  0  0  0
   -0.5604   -0.9051    0.8067 C   0  0  0  0  0  0  0  0  0  0  0  0
   -0.0370   -0.0775   -0.2327 C   0  0  0  0  0  0  0  0  0  0  0  0
    1.3300   -0.1647   -0.5158 N   0  0  0  0  0  0  0  0  0  0  0  0
    2.1012    0.7065   -1.2974 C   0  0  0  0  0  0  0  0  0  0  0  0
    1.7847    2.0650   -1.4960 C   0  0  0  0  0  0  0  0  0  0  0  0
    2.6298    2.8667   -2.2713 C   0  0  0  0  0  0  0  0  0  0  0  0
    3.7702    2.3573   -2.8330 C   0  0  0  0  0  0  0  0  0  0  0  0
    4.3535    3.4104   -3.5185 N   0  0  0  0  0  0  0  0  0  0  0  0
    3.6234    4.5577   -3.4034 N   0  0  0  0  0  0  0  0  0  0  0  0
    2.5811    4.2573   -2.6619 C   0  0  0  0  0  0  0  0  0  0  0  0
    4.1200    1.0200   -2.6441 C   0  0  0  0  0  0  0  0  0  0  0  0
    3.2821    0.2013   -1.8705 C   0  0  0  0  0  0  0  0  0  0  0  0
   -0.8240    0.7145   -0.9833 N   0  0  0  0  0  0  0  0  0  0  0  0
   -2.1634    0.7271   -0.7553 C   0  0  0  0  0  0  0  0  0  0  0  0
   -2.7297   -0.0850    0.2474 C   0  0  0  0  0  0  0  0  0  0  0  0
   -1.9296   -0.9082    1.0362 C   0  0  0  0  0  0  0  0  0  0  0  0
   -3.0941    1.6259   -1.5769 C   0  0  0  0  0  0  0  0  0  0  0  0
   -2.4255    2.4373   -2.4490 F   0  0  0  0  0  0  0  0  0  0  0  0
   -3.9671    0.8525   -2.2872 F   0  0  0  0  0  0  0  0  0  0  0  0
   -3.8228    2.4196   -0.7371 F   0  0  0  0  0  0  0  0  0  0  0  0
    1.2276   -1.4231    1.7139 H   0  0  0  0  0  0  0  0  0  0  0  0
   -0.1876   -2.1396    2.4402 H   0  0  0  0  0  0  0  0  0  0  0  0
    1.7227   -1.0803   -0.3367 H   0  0  0  0  0  0  0  0  0  0  0  0
    0.9014    2.5085   -1.0510 H   0  0  0  0  0  0  0  0  0  0  0  0
    5.2205    3.3324   -4.0502 H   0  0  0  0  0  0  0  0  0  0  0  0
    1.7962    4.9533   -2.3816 H   0  0  0  0  0  0  0  0  0  0  0  0
    5.0249    0.6180   -3.0889 H   0  0  0  0  0  0  0  0  0  0  0  0
    3.5515   -0.8388   -1.7241 H   0  0  0  0  0  0  0  0  0  0  0  0
   -3.8045   -0.0616    0.4061 H   0  0  0  0  0  0  0  0  0  0  0  0
   -2.3709   -1.5266    1.8117 H   0  0  0  0  0  0  0  0  0  0  0  0
  1  2  1  0
  1 22  1  0
  1 23  1  0
  2  3  2  0
  2 17  1  0
  3  4  1  0
  3 14  1  0
  4  5  1  0
  4 24  1  0
  5  6  2  0
  5 13  1  0
  6  7  1  0
  6 25  1  0
  7  8  2  0
  7 11  1  0
  8  9  1  0
  8 12  1  0
  9 10  1  0
  9 26  1  0
 10 11  2  0
 11 27  1  0
 12 13  2  0
 12 28  1  0
 13 29  1  0
 14 15  2  0
 15 16  1  0
 15 18  1  0
 16 17  2  0
 16 30  1  0
 17 31  1  0
 18 19  1  0
 18 20  1  0
 18 21  1  0
M  END
>  <group_name>  (1) 
JNS

>  <molecule_index>  (1) 
00129

>  <conformer_index>  (1) 
05

>  <method>  (1) 
openff-1.3.0

>  <basis>  (1) 
smirnoff

>  <program>  (1) 
openmm

>  <initial_energy>  (1) 
129.1869938149284 kilocalorie / mole

>  <final_energy>  (1) 
116.20330866483009 kilocalorie / mole

$$$$
