JNS-02466-08
     RDKit          3D

 53 56  0  0  0  0  0  0  0  0999 V2000
   -0.4172   -3.8580   -0.7971 C   0  0  0  0  0  0  0  0  0  0  0  0
    0.1080   -2.6922   -1.6488 C   0  0  2  0  0  0  0  0  0  0  0  0
    1.2836   -2.0221   -1.0187 N   0  0  0  0  0  0  0  0  0  0  0  0
    1.7751   -0.8265   -1.7356 C   0  0  0  0  0  0  0  0  0  0  0  0
    2.6302    0.0192   -0.7799 C   0  0  0  0  0  0  0  0  0  0  0  0
    3.5760   -0.8124    0.1092 C   0  0  0  0  0  0  0  0  0  0  0  0
    3.7396   -2.2378   -0.4357 C   0  0  2  0  0  0  0  0  0  0  0  0
    2.3691   -2.9317   -0.5710 C   0  0  0  0  0  0  0  0  0  0  0  0
    4.6820   -3.0666    0.4120 C   0  0  0  0  0  0  0  0  0  0  0  0
    4.4419   -3.3127    1.7622 C   0  0  0  0  0  0  0  0  0  0  0  0
    5.3318   -4.0863    2.5311 C   0  0  0  0  0  0  0  0  0  0  0  0
    6.4532   -4.6122    1.9704 N   0  0  0  0  0  0  0  0  0  0  0  0
    6.7014   -4.3762    0.6709 C   0  0  0  0  0  0  0  0  0  0  0  0
    7.9362   -4.9703    0.0589 C   0  0  0  0  0  0  0  0  0  0  0  0
    5.8395   -3.6178   -0.1263 C   0  0  0  0  0  0  0  0  0  0  0  0
    5.0023   -4.3216    4.0110 C   0  0  0  0  0  0  0  0  0  0  0  0
    3.7885   -4.9392    4.1192 F   0  0  0  0  0  0  0  0  0  0  0  0
    4.9244   -3.1231    4.6619 F   0  0  0  0  0  0  0  0  0  0  0  0
    5.9302   -5.0939    4.6512 F   0  0  0  0  0  0  0  0  0  0  0  0
   -1.0668   -1.7482   -1.8953 C   0  0  0  0  0  0  0  0  0  0  0  0
   -1.6409   -1.7388   -3.1151 N   0  0  0  0  0  0  0  0  0  0  0  0
   -2.6670   -0.8958   -3.3299 C   0  0  0  0  0  0  0  0  0  0  0  0
   -3.1471    0.0030   -2.3381 C   0  0  0  0  0  0  0  0  0  0  0  0
   -4.1732    0.9012   -2.5704 O   0  0  0  0  0  0  0  0  0  0  0  0
   -4.5202    1.0497   -3.9589 C   0  0  0  0  0  0  0  0  0  0  0  0
   -4.5303   -0.3030   -4.6704 C   0  0  0  0  0  0  0  0  0  0  0  0
   -3.2482   -0.9494   -4.5794 O   0  0  0  0  0  0  0  0  0  0  0  0
   -2.5552   -0.0143   -1.0824 C   0  0  0  0  0  0  0  0  0  0  0  0
   -1.5049   -0.8985   -0.8670 C   0  0  0  0  0  0  0  0  0  0  0  0
   -1.2994   -4.2987   -1.2720 H   0  0  0  0  0  0  0  0  0  0  0  0
   -0.6940   -3.5095    0.2025 H   0  0  0  0  0  0  0  0  0  0  0  0
    0.3325   -4.6477   -0.7012 H   0  0  0  0  0  0  0  0  0  0  0  0
    0.4226   -3.0962   -2.6171 H   0  0  0  0  0  0  0  0  0  0  0  0
    0.9523   -0.2041   -2.1008 H   0  0  0  0  0  0  0  0  0  0  0  0
    2.3622   -1.1299   -2.6091 H   0  0  0  0  0  0  0  0  0  0  0  0
    3.2088    0.7356   -1.3707 H   0  0  0  0  0  0  0  0  0  0  0  0
    1.9658    0.5954   -0.1284 H   0  0  0  0  0  0  0  0  0  0  0  0
    3.1573   -0.8561    1.1195 H   0  0  0  0  0  0  0  0  0  0  0  0
    4.5511   -0.3193    0.1764 H   0  0  0  0  0  0  0  0  0  0  0  0
    4.1678   -2.1507   -1.4396 H   0  0  0  0  0  0  0  0  0  0  0  0
    2.0771   -3.3674    0.3896 H   0  0  0  0  0  0  0  0  0  0  0  0
    2.4856   -3.7563   -1.2825 H   0  0  0  0  0  0  0  0  0  0  0  0
    3.5556   -2.9067    2.2401 H   0  0  0  0  0  0  0  0  0  0  0  0
    8.6532   -4.1780   -0.1725 H   0  0  0  0  0  0  0  0  0  0  0  0
    8.4045   -5.6747    0.7530 H   0  0  0  0  0  0  0  0  0  0  0  0
    7.6809   -5.5053   -0.8599 H   0  0  0  0  0  0  0  0  0  0  0  0
    6.0872   -3.4634   -1.1709 H   0  0  0  0  0  0  0  0  0  0  0  0
   -3.8018    1.7148   -4.4485 H   0  0  0  0  0  0  0  0  0  0  0  0
   -5.5103    1.5082   -4.0377 H   0  0  0  0  0  0  0  0  0  0  0  0
   -4.7866   -0.1564   -5.7239 H   0  0  0  0  0  0  0  0  0  0  0  0
   -5.2980   -0.9442   -4.2253 H   0  0  0  0  0  0  0  0  0  0  0  0
   -2.9029    0.6576   -0.3025 H   0  0  0  0  0  0  0  0  0  0  0  0
   -1.0006   -0.9338    0.0936 H   0  0  0  0  0  0  0  0  0  0  0  0
  1  2  1  0
  1 30  1  0
  1 31  1  0
  1 32  1  0
  2  3  1  0
  2 20  1  0
  2 33  1  6
  3  4  1  0
  3  8  1  0
  4  5  1  0
  4 34  1  0
  4 35  1  0
  5  6  1  0
  5 36  1  0
  5 37  1  0
  6  7  1  0
  6 38  1  0
  6 39  1  0
  7  8  1  0
  7  9  1  0
  7 40  1  6
  8 41  1  0
  8 42  1  0
  9 10  2  0
  9 15  1  0
 10 11  1  0
 10 43  1  0
 11 12  2  0
 11 16  1  0
 12 13  1  0
 13 14  1  0
 13 15  2  0
 14 44  1  0
 14 45  1  0
 14 46  1  0
 15 47  1  0
 16 17  1  0
 16 18  1  0
 16 19  1  0
 20 21  2  0
 20 29  1  0
 21 22  1  0
 22 23  2  0
 22 27  1  0
 23 24  1  0
 23 28  1  0
 24 25  1  0
 25 26  1  0
 25 48  1  0
 25 49  1  0
 26 27  1  0
 26 50  1  0
 26 51  1  0
 28 29  2  0
 28 52  1  0
 29 53  1  0
M  END
>  <group_name>  (1) 
JNS

>  <molecule_index>  (1) 
02466

>  <conformer_index>  (1) 
08

>  <method>  (1) 
openff-1.3.0

>  <basis>  (1) 
smirnoff

>  <program>  (1) 
openmm

>  <initial_energy>  (1) 
118.55692714019928 kilocalorie / mole

>  <final_energy>  (1) 
108.44081147384193 kilocalorie / mole

$$$$
