JNS-01658-00
     RDKit          3D

 38 41  0  0  0  0  0  0  0  0999 V2000
   -0.3004   -2.3877   -1.4232 C   0  0  0  0  0  0  0  0  0  0  0  0
   -0.7326   -1.0596   -0.8678 C   0  0  0  0  0  0  0  0  0  0  0  0
   -2.0062   -0.7503   -0.8315 N   0  0  0  0  0  0  0  0  0  0  0  0
   -2.0367    0.5593   -0.3801 C   0  0  0  0  0  0  0  0  0  0  0  0
   -0.7651    1.0477   -0.1437 C   0  0  0  0  0  0  0  0  0  0  0  0
   -0.5127    2.2933    0.3060 N   0  0  0  0  0  0  0  0  0  0  0  0
   -1.5808    3.1110    0.5272 C   0  0  0  0  0  0  0  0  0  0  0  0
   -2.9017    2.6563    0.2937 C   0  0  0  0  0  0  0  0  0  0  0  0
   -3.1427    1.3610   -0.1666 C   0  0  0  0  0  0  0  0  0  0  0  0
   -1.3778    4.5467    1.0287 C   0  0  0  0  0  0  0  0  0  0  0  0
   -1.9634    5.4255    0.1622 F   0  0  0  0  0  0  0  0  0  0  0  0
   -0.0599    4.8884    1.1491 F   0  0  0  0  0  0  0  0  0  0  0  0
   -1.9725    4.6967    2.2489 F   0  0  0  0  0  0  0  0  0  0  0  0
    0.0847   -0.0054   -0.4300 N   0  0  0  0  0  0  0  0  0  0  0  0
    1.4799   -0.0208   -0.2299 C   0  0  0  0  0  0  0  0  0  0  0  0
    2.2490    1.1309   -0.4843 C   0  0  0  0  0  0  0  0  0  0  0  0
    3.6293    1.1037   -0.2833 C   0  0  0  0  0  0  0  0  0  0  0  0
    4.2599   -0.0400    0.1746 C   0  0  0  0  0  0  0  0  0  0  0  0
    5.6160    0.2024    0.2911 N   0  0  0  0  0  0  0  0  0  0  0  0
    5.8519    1.5188    0.0190 C   0  0  0  0  0  0  0  0  0  0  0  0
    6.9184    2.0459    0.3044 O   0  0  0  0  0  0  0  0  0  0  0  0
    4.6020    2.2385   -0.4701 C   0  0  0  0  0  0  0  0  0  0  0  0
    3.5290   -1.1951    0.4652 C   0  0  0  0  0  0  0  0  0  0  0  0
    4.2167   -2.4381    0.9728 C   0  0  0  0  0  0  0  0  0  0  0  0
    2.1381   -1.1727    0.2566 C   0  0  0  0  0  0  0  0  0  0  0  0
   -0.9191   -2.6405   -2.2888 H   0  0  0  0  0  0  0  0  0  0  0  0
    0.7441   -2.3604   -1.7420 H   0  0  0  0  0  0  0  0  0  0  0  0
   -0.4355   -3.1642   -0.6660 H   0  0  0  0  0  0  0  0  0  0  0  0
   -3.7371    3.3256    0.4765 H   0  0  0  0  0  0  0  0  0  0  0  0
   -4.1430    0.9812   -0.3544 H   0  0  0  0  0  0  0  0  0  0  0  0
    1.7837    2.0447   -0.8431 H   0  0  0  0  0  0  0  0  0  0  0  0
    6.1984   -0.2540    0.9837 H   0  0  0  0  0  0  0  0  0  0  0  0
    4.6994    2.5271   -1.5189 H   0  0  0  0  0  0  0  0  0  0  0  0
    4.3652    3.0954    0.1652 H   0  0  0  0  0  0  0  0  0  0  0  0
    4.5493   -2.2857    2.0039 H   0  0  0  0  0  0  0  0  0  0  0  0
    5.0866   -2.6692    0.3503 H   0  0  0  0  0  0  0  0  0  0  0  0
    3.5405   -3.2979    0.9480 H   0  0  0  0  0  0  0  0  0  0  0  0
    1.5648   -2.0580    0.5091 H   0  0  0  0  0  0  0  0  0  0  0  0
  1  2  1  0
  1 26  1  0
  1 27  1  0
  1 28  1  0
  2  3  2  0
  2 14  1  0
  3  4  1  0
  4  5  2  0
  4  9  1  0
  5  6  1  0
  5 14  1  0
  6  7  2  0
  7  8  1  0
  7 10  1  0
  8  9  2  0
  8 29  1  0
  9 30  1  0
 10 11  1  0
 10 12  1  0
 10 13  1  0
 14 15  1  0
 15 16  2  0
 15 25  1  0
 16 17  1  0
 16 31  1  0
 17 18  2  0
 17 22  1  0
 18 19  1  0
 18 23  1  0
 19 20  1  0
 19 32  1  0
 20 21  2  0
 20 22  1  0
 22 33  1  0
 22 34  1  0
 23 24  1  0
 23 25  2  0
 24 35  1  0
 24 36  1  0
 24 37  1  0
 25 38  1  0
M  END
>  <group_name>  (1) 
JNS

>  <molecule_index>  (1) 
01658

>  <conformer_index>  (1) 
00

>  <method>  (1) 
openff-1.3.0

>  <basis>  (1) 
smirnoff

>  <program>  (1) 
openmm

>  <initial_energy>  (1) 
82.95349848971233 kilocalorie / mole

>  <final_energy>  (1) 
71.94598763479152 kilocalorie / mole

$$$$
