JNS-01155-02
     RDKit          3D

 46 50  0  0  0  0  0  0  0  0999 V2000
   -0.6421    0.9921    0.2739 F   0  0  0  0  0  0  0  0  0  0  0  0
   -0.0046    0.2712   -0.6951 C   0  0  0  0  0  0  0  0  0  0  0  0
   -0.1349    0.9507   -1.8732 F   0  0  0  0  0  0  0  0  0  0  0  0
   -0.6571   -0.9175   -0.8510 F   0  0  0  0  0  0  0  0  0  0  0  0
    1.4711    0.0845   -0.3203 C   0  0  0  0  0  0  0  0  0  0  0  0
    2.3945    0.9601   -0.6721 N   0  0  0  0  0  0  0  0  0  0  0  0
    3.6294    0.4317   -0.2801 C   0  0  0  0  0  0  0  0  0  0  0  0
    3.4280   -0.7954    0.3192 C   0  0  0  0  0  0  0  0  0  0  0  0
    4.4009   -1.5848    0.8018 N   0  0  0  0  0  0  0  0  0  0  0  0
    5.6770   -1.1452    0.6869 C   0  0  0  0  0  0  0  0  0  0  0  0
    5.9534    0.0929    0.0785 C   0  0  0  0  0  0  0  0  0  0  0  0
    4.9420    0.9099   -0.4208 C   0  0  0  0  0  0  0  0  0  0  0  0
    5.2645    2.1428   -1.0253 N   0  0  0  0  0  0  0  0  0  0  0  0
    6.6053    2.3977   -1.5967 C   0  0  0  0  0  0  0  0  0  0  0  0
    6.5165    3.3948   -2.7630 C   0  0  0  0  0  0  0  0  0  0  0  0
    5.8908    4.6486   -2.4060 O   0  0  0  0  0  0  0  0  0  0  0  0
    4.8963    4.5773   -1.3569 C   0  0  0  0  0  0  0  0  0  0  0  0
    4.2404    3.1958   -1.2040 C   0  0  0  0  0  0  0  0  0  0  0  0
    6.8491   -1.9924    1.2089 C   0  0  0  0  0  0  0  0  0  0  0  0
    6.4591   -3.2200    1.6669 F   0  0  0  0  0  0  0  0  0  0  0  0
    7.7607   -2.1901    0.2099 F   0  0  0  0  0  0  0  0  0  0  0  0
    7.4782   -1.3351    2.2278 F   0  0  0  0  0  0  0  0  0  0  0  0
    2.0610   -1.0108    0.3391 N   0  0  0  0  0  0  0  0  0  0  0  0
    1.4146   -2.0715    1.0086 C   0  0  0  0  0  0  0  0  0  0  0  0
    1.9338   -3.3809    0.9395 C   0  0  0  0  0  0  0  0  0  0  0  0
    1.2874   -4.4226    1.6109 C   0  0  0  0  0  0  0  0  0  0  0  0
    0.1554   -4.1981    2.3464 C   0  0  0  0  0  0  0  0  0  0  0  0
   -0.2080   -5.4313    2.8618 N   0  0  0  0  0  0  0  0  0  0  0  0
    0.6552   -6.4159    2.4768 N   0  0  0  0  0  0  0  0  0  0  0  0
    1.5646   -5.8367    1.7268 C   0  0  0  0  0  0  0  0  0  0  0  0
   -0.3790   -2.9149    2.4526 C   0  0  0  0  0  0  0  0  0  0  0  0
    0.2560   -1.8543    1.7884 C   0  0  0  0  0  0  0  0  0  0  0  0
    6.9883    0.4061    0.0289 H   0  0  0  0  0  0  0  0  0  0  0  0
    7.2689    2.7995   -0.8243 H   0  0  0  0  0  0  0  0  0  0  0  0
    7.0410    1.4687   -1.9782 H   0  0  0  0  0  0  0  0  0  0  0  0
    5.9481    2.9362   -3.5782 H   0  0  0  0  0  0  0  0  0  0  0  0
    7.5253    3.5931   -3.1370 H   0  0  0  0  0  0  0  0  0  0  0  0
    5.3704    4.8461   -0.4079 H   0  0  0  0  0  0  0  0  0  0  0  0
    4.1151    5.3175   -1.5535 H   0  0  0  0  0  0  0  0  0  0  0  0
    3.6336    2.9790   -2.0893 H   0  0  0  0  0  0  0  0  0  0  0  0
    3.5770    3.2306   -0.3340 H   0  0  0  0  0  0  0  0  0  0  0  0
    2.8289   -3.5951    0.3622 H   0  0  0  0  0  0  0  0  0  0  0  0
   -1.0205   -5.5813    3.4604 H   0  0  0  0  0  0  0  0  0  0  0  0
    2.4027   -6.3463    1.2607 H   0  0  0  0  0  0  0  0  0  0  0  0
   -1.2693   -2.7351    3.0473 H   0  0  0  0  0  0  0  0  0  0  0  0
   -0.1538   -0.8577    1.9096 H   0  0  0  0  0  0  0  0  0  0  0  0
  1  2  1  0
  2  3  1  0
  2  4  1  0
  2  5  1  0
  5  6  2  0
  5 23  1  0
  6  7  1  0
  7  8  2  0
  7 12  1  0
  8  9  1  0
  8 23  1  0
  9 10  2  0
 10 11  1  0
 10 19  1  0
 11 12  2  0
 11 33  1  0
 12 13  1  0
 13 14  1  0
 13 18  1  0
 14 15  1  0
 14 34  1  0
 14 35  1  0
 15 16  1  0
 15 36  1  0
 15 37  1  0
 16 17  1  0
 17 18  1  0
 17 38  1  0
 17 39  1  0
 18 40  1  0
 18 41  1  0
 19 20  1  0
 19 21  1  0
 19 22  1  0
 23 24  1  0
 24 25  2  0
 24 32  1  0
 25 26  1  0
 25 42  1  0
 26 27  2  0
 26 30  1  0
 27 28  1  0
 27 31  1  0
 28 29  1  0
 28 43  1  0
 29 30  2  0
 30 44  1  0
 31 32  2  0
 31 45  1  0
 32 46  1  0
M  END
>  <group_name>  (1) 
JNS

>  <molecule_index>  (1) 
01155

>  <conformer_index>  (1) 
02

>  <method>  (1) 
openff-1.3.0

>  <basis>  (1) 
smirnoff

>  <program>  (1) 
openmm

>  <initial_energy>  (1) 
213.0809220996433 kilocalorie / mole

>  <final_energy>  (1) 
194.22941422113124 kilocalorie / mole

$$$$
