JNS-01681-06
     RDKit          3D

 30 33  0  0  0  0  0  0  0  0999 V2000
   -0.6782    0.0822   -0.8447 F   0  0  0  0  0  0  0  0  0  0  0  0
   -0.0144    0.6183    0.2220 C   0  0  0  0  0  0  0  0  0  0  0  0
   -0.6016    0.1503    1.3640 F   0  0  0  0  0  0  0  0  0  0  0  0
   -0.1765    1.9738    0.1823 F   0  0  0  0  0  0  0  0  0  0  0  0
    1.4777    0.2727    0.1312 C   0  0  0  0  0  0  0  0  0  0  0  0
    2.1013   -0.3919    1.1449 N   0  0  0  0  0  0  0  0  0  0  0  0
    3.4122   -0.6748    1.0031 C   0  0  0  0  0  0  0  0  0  0  0  0
    4.1459   -0.3106   -0.1146 C   0  0  0  0  0  0  0  0  0  0  0  0
    3.5477    0.3643   -1.1625 C   0  0  0  0  0  0  0  0  0  0  0  0
    2.1905    0.6553   -1.0298 C   0  0  0  0  0  0  0  0  0  0  0  0
    5.4718   -0.6958   -0.0142 N   0  0  0  0  0  0  0  0  0  0  0  0
    5.5469   -1.2864    1.1537 C   0  0  0  0  0  0  0  0  0  0  0  0
    4.3247   -1.3106    1.8337 N   0  0  0  0  0  0  0  0  0  0  0  0
    4.1095   -1.8783    3.1115 C   0  0  0  0  0  0  0  0  0  0  0  0
    2.8113   -2.1519    3.5983 C   0  0  0  0  0  0  0  0  0  0  0  0
    2.6431   -2.7177    4.8654 C   0  0  0  0  0  0  0  0  0  0  0  0
    3.7149   -3.0204    5.6584 C   0  0  0  0  0  0  0  0  0  0  0  0
    3.1829   -3.5564    6.8201 N   0  0  0  0  0  0  0  0  0  0  0  0
    1.8197   -3.6008    6.7799 N   0  0  0  0  0  0  0  0  0  0  0  0
    1.4687   -3.1018    5.6167 C   0  0  0  0  0  0  0  0  0  0  0  0
    5.0123   -2.7686    5.2188 C   0  0  0  0  0  0  0  0  0  0  0  0
    5.2056   -2.2000    3.9500 C   0  0  0  0  0  0  0  0  0  0  0  0
    4.1258    0.6472   -2.0378 H   0  0  0  0  0  0  0  0  0  0  0  0
    1.6733    1.1839   -1.8251 H   0  0  0  0  0  0  0  0  0  0  0  0
    6.4685   -1.7166    1.5319 H   0  0  0  0  0  0  0  0  0  0  0  0
    1.9203   -1.9503    3.0146 H   0  0  0  0  0  0  0  0  0  0  0  0
    3.7438   -3.8772    7.6096 H   0  0  0  0  0  0  0  0  0  0  0  0
    0.4455   -2.9934    5.2693 H   0  0  0  0  0  0  0  0  0  0  0  0
    5.8621   -3.0056    5.8516 H   0  0  0  0  0  0  0  0  0  0  0  0
    6.2273   -2.0027    3.6461 H   0  0  0  0  0  0  0  0  0  0  0  0
  1  2  1  0
  2  3  1  0
  2  4  1  0
  2  5  1  0
  5  6  2  0
  5 10  1  0
  6  7  1  0
  7  8  2  0
  7 13  1  0
  8  9  1  0
  8 11  1  0
  9 10  2  0
  9 23  1  0
 10 24  1  0
 11 12  2  0
 12 13  1  0
 12 25  1  0
 13 14  1  0
 14 15  2  0
 14 22  1  0
 15 16  1  0
 15 26  1  0
 16 17  2  0
 16 20  1  0
 17 18  1  0
 17 21  1  0
 18 19  1  0
 18 27  1  0
 19 20  2  0
 20 28  1  0
 21 22  2  0
 21 29  1  0
 22 30  1  0
M  END
>  <group_name>  (1) 
JNS

>  <molecule_index>  (1) 
01681

>  <conformer_index>  (1) 
06

>  <method>  (1) 
openff-1.3.0

>  <basis>  (1) 
smirnoff

>  <program>  (1) 
openmm

>  <initial_energy>  (1) 
148.9720629653862 kilocalorie / mole

>  <final_energy>  (1) 
139.20336222188482 kilocalorie / mole

$$$$
