JNS-01658-09
     RDKit          3D

 38 41  0  0  0  0  0  0  0  0999 V2000
   -0.1389   -2.3289   -1.6430 C   0  0  0  0  0  0  0  0  0  0  0  0
   -0.6141   -0.9858   -1.1639 C   0  0  0  0  0  0  0  0  0  0  0  0
   -1.8682   -0.6409   -1.3304 N   0  0  0  0  0  0  0  0  0  0  0  0
   -1.9861    0.5786   -0.6841 C   0  0  0  0  0  0  0  0  0  0  0  0
   -0.7888    0.9734   -0.1168 C   0  0  0  0  0  0  0  0  0  0  0  0
   -0.6280    2.1238    0.5678 N   0  0  0  0  0  0  0  0  0  0  0  0
   -1.7179    2.9308    0.7076 C   0  0  0  0  0  0  0  0  0  0  0  0
   -2.9663    2.5653    0.1475 C   0  0  0  0  0  0  0  0  0  0  0  0
   -3.1116    1.3722   -0.5618 C   0  0  0  0  0  0  0  0  0  0  0  0
   -1.6203    4.2515    1.4821 C   0  0  0  0  0  0  0  0  0  0  0  0
   -2.5428    4.2654    2.4895 F   0  0  0  0  0  0  0  0  0  0  0  0
   -0.3878    4.4541    2.0372 F   0  0  0  0  0  0  0  0  0  0  0  0
   -1.8911    5.2970    0.6464 F   0  0  0  0  0  0  0  0  0  0  0  0
    0.1134   -0.0218   -0.4475 N   0  0  0  0  0  0  0  0  0  0  0  0
    1.4995   -0.0025   -0.1892 C   0  0  0  0  0  0  0  0  0  0  0  0
    2.4234   -0.4992   -1.1301 C   0  0  0  0  0  0  0  0  0  0  0  0
    3.7899   -0.4677   -0.8465 C   0  0  0  0  0  0  0  0  0  0  0  0
    4.2568    0.0607    0.3452 C   0  0  0  0  0  0  0  0  0  0  0  0
    5.6368   -0.0160    0.3716 N   0  0  0  0  0  0  0  0  0  0  0  0
    6.0738   -0.4824   -0.8336 C   0  0  0  0  0  0  0  0  0  0  0  0
    7.2468   -0.3950   -1.1694 O   0  0  0  0  0  0  0  0  0  0  0  0
    4.9232   -0.9126   -1.7343 C   0  0  0  0  0  0  0  0  0  0  0  0
    3.3753    0.5890    1.2913 C   0  0  0  0  0  0  0  0  0  0  0  0
    3.8838    1.1676    2.5883 C   0  0  0  0  0  0  0  0  0  0  0  0
    1.9978    0.5468    1.0129 C   0  0  0  0  0  0  0  0  0  0  0  0
    0.7668   -2.6371   -1.1158 H   0  0  0  0  0  0  0  0  0  0  0  0
   -0.9154   -3.0775   -1.4623 H   0  0  0  0  0  0  0  0  0  0  0  0
    0.0553   -2.2878   -2.7178 H   0  0  0  0  0  0  0  0  0  0  0  0
   -3.8210    3.2237    0.2719 H   0  0  0  0  0  0  0  0  0  0  0  0
   -4.0543    1.0631   -1.0045 H   0  0  0  0  0  0  0  0  0  0  0  0
    2.0975   -0.8798   -2.0923 H   0  0  0  0  0  0  0  0  0  0  0  0
    6.2137    0.6543    0.8671 H   0  0  0  0  0  0  0  0  0  0  0  0
    4.9278   -1.9945   -1.8835 H   0  0  0  0  0  0  0  0  0  0  0  0
    4.9445   -0.3719   -2.6833 H   0  0  0  0  0  0  0  0  0  0  0  0
    4.5836    0.4734    3.0634 H   0  0  0  0  0  0  0  0  0  0  0  0
    3.0593    1.3525    3.2836 H   0  0  0  0  0  0  0  0  0  0  0  0
    4.3965    2.1153    2.3984 H   0  0  0  0  0  0  0  0  0  0  0  0
    1.3062    0.9427    1.7508 H   0  0  0  0  0  0  0  0  0  0  0  0
  1  2  1  0
  1 26  1  0
  1 27  1  0
  1 28  1  0
  2  3  2  0
  2 14  1  0
  3  4  1  0
  4  5  2  0
  4  9  1  0
  5  6  1  0
  5 14  1  0
  6  7  2  0
  7  8  1  0
  7 10  1  0
  8  9  2  0
  8 29  1  0
  9 30  1  0
 10 11  1  0
 10 12  1  0
 10 13  1  0
 14 15  1  0
 15 16  2  0
 15 25  1  0
 16 17  1  0
 16 31  1  0
 17 18  2  0
 17 22  1  0
 18 19  1  0
 18 23  1  0
 19 20  1  0
 19 32  1  0
 20 21  2  0
 20 22  1  0
 22 33  1  0
 22 34  1  0
 23 24  1  0
 23 25  2  0
 24 35  1  0
 24 36  1  0
 24 37  1  0
 25 38  1  0
M  END
>  <group_name>  (1) 
JNS

>  <molecule_index>  (1) 
01658

>  <conformer_index>  (1) 
09

>  <method>  (1) 
openff-1.3.0

>  <basis>  (1) 
smirnoff

>  <program>  (1) 
openmm

>  <initial_energy>  (1) 
83.05812150693248 kilocalorie / mole

>  <final_energy>  (1) 
71.27617858606683 kilocalorie / mole

$$$$
