JNS-01548-05
     RDKit          3D

 36 39  0  0  0  0  0  0  0  0999 V2000
   -2.8788   -1.2299    2.3312 C   0  0  0  0  0  0  0  0  0  0  0  0
   -2.1350   -0.6287    1.1640 C   0  0  0  0  0  0  0  0  0  0  0  0
   -0.7402   -0.4555    1.2121 C   0  0  0  0  0  0  0  0  0  0  0  0
   -0.0238    0.1026    0.1313 C   0  0  0  0  0  0  0  0  0  0  0  0
   -0.7398    0.4648   -1.0264 C   0  0  0  0  0  0  0  0  0  0  0  0
   -2.1243    0.2950   -1.0681 C   0  0  0  0  0  0  0  0  0  0  0  0
   -2.8167   -0.2386    0.0039 C   0  0  0  0  0  0  0  0  0  0  0  0
   -4.1925   -0.3548   -0.1718 N   0  0  0  0  0  0  0  0  0  0  0  0
   -4.5256    0.0795   -1.3553 C   0  0  0  0  0  0  0  0  0  0  0  0
   -5.8292    0.0621   -1.7499 O   0  0  0  0  0  0  0  0  0  0  0  0
   -3.2097    0.6739   -2.3792 S   0  0  0  0  0  0  0  0  0  0  0  0
    1.3753    0.2557    0.2091 N   0  0  0  0  0  0  0  0  0  0  0  0
    2.2445   -0.6949    0.7134 C   0  0  0  0  0  0  0  0  0  0  0  0
    3.5069   -0.2188    0.4304 C   0  0  0  0  0  0  0  0  0  0  0  0
    4.6258   -0.9515    0.7821 C   0  0  0  0  0  0  0  0  0  0  0  0
    4.4030   -2.1720    1.4207 C   0  0  0  0  0  0  0  0  0  0  0  0
    3.0872   -2.6228    1.6865 C   0  0  0  0  0  0  0  0  0  0  0  0
    2.0083   -1.8725    1.3250 N   0  0  0  0  0  0  0  0  0  0  0  0
    2.9021   -3.9699    2.3967 C   0  0  0  0  0  0  0  0  0  0  0  0
    3.4065   -4.9720    1.6183 F   0  0  0  0  0  0  0  0  0  0  0  0
    3.5873   -3.9655    3.5782 F   0  0  0  0  0  0  0  0  0  0  0  0
    1.5932   -4.2528    2.6685 F   0  0  0  0  0  0  0  0  0  0  0  0
    3.4552    1.0107   -0.2014 N   0  0  0  0  0  0  0  0  0  0  0  0
    2.1700    1.3033   -0.3103 C   0  0  0  0  0  0  0  0  0  0  0  0
    1.6930    2.6553   -0.8564 C   0  0  0  0  0  0  0  0  0  0  0  0
    2.5864    3.6487   -0.5732 F   0  0  0  0  0  0  0  0  0  0  0  0
    1.5579    2.5865   -2.2135 F   0  0  0  0  0  0  0  0  0  0  0  0
    0.4968    3.0363   -0.3207 F   0  0  0  0  0  0  0  0  0  0  0  0
   -3.4433   -2.1071    2.0008 H   0  0  0  0  0  0  0  0  0  0  0  0
   -3.5807   -0.4976    2.7414 H   0  0  0  0  0  0  0  0  0  0  0  0
   -2.1895   -1.5384    3.1224 H   0  0  0  0  0  0  0  0  0  0  0  0
   -0.2106   -0.7543    2.1117 H   0  0  0  0  0  0  0  0  0  0  0  0
   -0.2402    0.8548   -1.9061 H   0  0  0  0  0  0  0  0  0  0  0  0
   -5.8916    0.4163   -2.6461 H   0  0  0  0  0  0  0  0  0  0  0  0
    5.6221   -0.5766    0.5630 H   0  0  0  0  0  0  0  0  0  0  0  0
    5.2484   -2.7857    1.7181 H   0  0  0  0  0  0  0  0  0  0  0  0
  1  2  1  0
  1 29  1  0
  1 30  1  0
  1 31  1  0
  2  3  2  0
  2  7  1  0
  3  4  1  0
  3 32  1  0
  4  5  2  0
  4 12  1  0
  5  6  1  0
  5 33  1  0
  6  7  2  0
  6 11  1  0
  7  8  1  0
  8  9  2  0
  9 10  1  0
  9 11  1  0
 10 34  1  0
 12 13  1  0
 12 24  1  0
 13 14  1  0
 13 18  2  0
 14 15  2  0
 14 23  1  0
 15 16  1  0
 15 35  1  0
 16 17  2  0
 16 36  1  0
 17 18  1  0
 17 19  1  0
 19 20  1  0
 19 21  1  0
 19 22  1  0
 23 24  2  0
 24 25  1  0
 25 26  1  0
 25 27  1  0
 25 28  1  0
M  END
>  <group_name>  (1) 
JNS

>  <molecule_index>  (1) 
01548

>  <conformer_index>  (1) 
05

>  <method>  (1) 
openff-1.3.0

>  <basis>  (1) 
smirnoff

>  <program>  (1) 
openmm

>  <initial_energy>  (1) 
141.94665537521828 kilocalorie / mole

>  <final_energy>  (1) 
131.41894373193475 kilocalorie / mole

$$$$
