JNS-01614-07
     RDKit          3D

 39 42  0  0  0  0  0  0  0  0999 V2000
   -0.3648    0.8938    1.2316 C   0  0  0  0  0  0  0  0  0  0  0  0
   -0.0625    0.4760   -0.2108 C   0  0  0  0  0  0  0  0  0  0  0  0
    1.4215    0.2896   -0.4420 C   0  0  0  0  0  0  0  0  0  0  0  0
    2.2726    1.2423   -0.1367 N   0  0  0  0  0  0  0  0  0  0  0  0
    3.5220    0.6882   -0.3618 C   0  0  0  0  0  0  0  0  0  0  0  0
    3.4279   -0.6141   -0.8138 C   0  0  0  0  0  0  0  0  0  0  0  0
    4.4942   -1.3842   -1.1100 N   0  0  0  0  0  0  0  0  0  0  0  0
    5.7311   -0.8366   -0.9422 C   0  0  0  0  0  0  0  0  0  0  0  0
    5.8774    0.4934   -0.4773 C   0  0  0  0  0  0  0  0  0  0  0  0
    4.7603    1.2757   -0.1805 C   0  0  0  0  0  0  0  0  0  0  0  0
    6.9959   -1.6499   -1.2463 C   0  0  0  0  0  0  0  0  0  0  0  0
    7.6983   -1.0506   -2.2527 F   0  0  0  0  0  0  0  0  0  0  0  0
    7.7959   -1.6908   -0.1397 F   0  0  0  0  0  0  0  0  0  0  0  0
    6.7275   -2.9372   -1.6189 F   0  0  0  0  0  0  0  0  0  0  0  0
    2.0719   -0.8658   -0.9063 N   0  0  0  0  0  0  0  0  0  0  0  0
    1.4914   -2.0125   -1.4822 C   0  0  0  0  0  0  0  0  0  0  0  0
    0.3841   -1.9154   -2.3482 C   0  0  0  0  0  0  0  0  0  0  0  0
   -0.1625   -3.0737   -2.9060 C   0  0  0  0  0  0  0  0  0  0  0  0
    0.3693   -4.3074   -2.6369 C   0  0  0  0  0  0  0  0  0  0  0  0
   -0.4015   -5.2106   -3.3509 N   0  0  0  0  0  0  0  0  0  0  0  0
   -1.3913   -4.5895   -4.0560 N   0  0  0  0  0  0  0  0  0  0  0  0
   -1.2677   -3.3064   -3.8095 C   0  0  0  0  0  0  0  0  0  0  0  0
    1.4781   -4.4496   -1.7969 C   0  0  0  0  0  0  0  0  0  0  0  0
    2.0795   -5.8057   -1.5301 C   0  0  0  0  0  0  0  0  0  0  0  0
    2.0348   -3.2901   -1.2303 C   0  0  0  0  0  0  0  0  0  0  0  0
    0.0070    0.1386    1.9313 H   0  0  0  0  0  0  0  0  0  0  0  0
    0.1111    1.8522    1.4635 H   0  0  0  0  0  0  0  0  0  0  0  0
   -1.4445    1.0014    1.3734 H   0  0  0  0  0  0  0  0  0  0  0  0
   -0.4302    1.2467   -0.8941 H   0  0  0  0  0  0  0  0  0  0  0  0
   -0.6008   -0.4519   -0.4126 H   0  0  0  0  0  0  0  0  0  0  0  0
    6.8728    0.9087   -0.3510 H   0  0  0  0  0  0  0  0  0  0  0  0
    4.8376    2.2984    0.1774 H   0  0  0  0  0  0  0  0  0  0  0  0
   -0.0365   -0.9509   -2.6133 H   0  0  0  0  0  0  0  0  0  0  0  0
   -0.2353   -6.2173   -3.3527 H   0  0  0  0  0  0  0  0  0  0  0  0
   -1.9057   -2.5315   -4.2240 H   0  0  0  0  0  0  0  0  0  0  0  0
    1.4157   -6.3883   -0.8847 H   0  0  0  0  0  0  0  0  0  0  0  0
    3.0511   -5.7093   -1.0357 H   0  0  0  0  0  0  0  0  0  0  0  0
    2.2279   -6.3449   -2.4704 H   0  0  0  0  0  0  0  0  0  0  0  0
    2.8987   -3.3860   -0.5790 H   0  0  0  0  0  0  0  0  0  0  0  0
  1  2  1  0
  1 26  1  0
  1 27  1  0
  1 28  1  0
  2  3  1  0
  2 29  1  0
  2 30  1  0
  3  4  2  0
  3 15  1  0
  4  5  1  0
  5  6  2  0
  5 10  1  0
  6  7  1  0
  6 15  1  0
  7  8  2  0
  8  9  1  0
  8 11  1  0
  9 10  2  0
  9 31  1  0
 10 32  1  0
 11 12  1  0
 11 13  1  0
 11 14  1  0
 15 16  1  0
 16 17  2  0
 16 25  1  0
 17 18  1  0
 17 33  1  0
 18 19  2  0
 18 22  1  0
 19 20  1  0
 19 23  1  0
 20 21  1  0
 20 34  1  0
 21 22  2  0
 22 35  1  0
 23 24  1  0
 23 25  2  0
 24 36  1  0
 24 37  1  0
 24 38  1  0
 25 39  1  0
M  END
>  <group_name>  (1) 
JNS

>  <molecule_index>  (1) 
01614

>  <conformer_index>  (1) 
07

>  <method>  (1) 
openff-1.3.0

>  <basis>  (1) 
smirnoff

>  <program>  (1) 
openmm

>  <initial_energy>  (1) 
148.90545356708998 kilocalorie / mole

>  <final_energy>  (1) 
136.8211283143981 kilocalorie / mole

$$$$
