JNS-01595-03
     RDKit          3D

 39 42  0  0  0  0  0  0  0  0999 V2000
   -0.5614   -1.4383    0.6404 C   0  0  0  0  0  0  0  0  0  0  0  0
   -0.1402   -0.3863   -0.3958 C   0  0  0  0  0  0  0  0  0  0  0  0
   -0.4646   -0.8868   -1.8101 C   0  0  0  0  0  0  0  0  0  0  0  0
    1.3425   -0.0714   -0.2691 C   0  0  0  0  0  0  0  0  0  0  0  0
    2.2428   -1.0290   -0.3211 N   0  0  0  0  0  0  0  0  0  0  0  0
    3.4488   -0.4025   -0.0573 C   0  0  0  0  0  0  0  0  0  0  0  0
    3.2813    0.9514    0.1557 C   0  0  0  0  0  0  0  0  0  0  0  0
    4.2925    1.7981    0.4340 N   0  0  0  0  0  0  0  0  0  0  0  0
    5.5481    1.2733    0.5139 C   0  0  0  0  0  0  0  0  0  0  0  0
    5.7686   -0.1105    0.3066 C   0  0  0  0  0  0  0  0  0  0  0  0
    4.7076   -0.9694    0.0154 C   0  0  0  0  0  0  0  0  0  0  0  0
    6.7525    2.1667    0.8378 C   0  0  0  0  0  0  0  0  0  0  0  0
    7.6251    2.1611   -0.2129 F   0  0  0  0  0  0  0  0  0  0  0  0
    7.4079    1.6789    1.9328 F   0  0  0  0  0  0  0  0  0  0  0  0
    6.4027    3.4618    1.0986 F   0  0  0  0  0  0  0  0  0  0  0  0
    1.9292    1.1811   -0.0146 N   0  0  0  0  0  0  0  0  0  0  0  0
    1.3092    2.4462    0.0022 C   0  0  0  0  0  0  0  0  0  0  0  0
    1.7015    3.4169    0.9452 C   0  0  0  0  0  0  0  0  0  0  0  0
    1.0840    4.6721    0.9546 C   0  0  0  0  0  0  0  0  0  0  0  0
    0.1040    4.9827    0.0497 C   0  0  0  0  0  0  0  0  0  0  0  0
   -0.2770    6.2828    0.3389 N   0  0  0  0  0  0  0  0  0  0  0  0
    0.4255    6.7962    1.3887 N   0  0  0  0  0  0  0  0  0  0  0  0
    1.2525    5.8530    1.7763 C   0  0  0  0  0  0  0  0  0  0  0  0
    2.4936    6.0325    3.2192 Br  0  0  0  0  0  0  0  0  0  0  0  0
   -0.2972    4.0559   -0.9122 C   0  0  0  0  0  0  0  0  0  0  0  0
    0.3119    2.7919   -0.9359 C   0  0  0  0  0  0  0  0  0  0  0  0
   -0.0299   -2.3817    0.4773 H   0  0  0  0  0  0  0  0  0  0  0  0
   -1.6368   -1.6300    0.5743 H   0  0  0  0  0  0  0  0  0  0  0  0
   -0.3354   -1.0834    1.6509 H   0  0  0  0  0  0  0  0  0  0  0  0
   -0.7249    0.5137   -0.1956 H   0  0  0  0  0  0  0  0  0  0  0  0
   -0.1762   -0.1409   -2.5566 H   0  0  0  0  0  0  0  0  0  0  0  0
    0.0779   -1.8138   -2.0241 H   0  0  0  0  0  0  0  0  0  0  0  0
   -1.5372   -1.0802   -1.9098 H   0  0  0  0  0  0  0  0  0  0  0  0
    6.7774   -0.5066    0.3757 H   0  0  0  0  0  0  0  0  0  0  0  0
    4.8424   -2.0347   -0.1485 H   0  0  0  0  0  0  0  0  0  0  0  0
    2.4767    3.1989    1.6742 H   0  0  0  0  0  0  0  0  0  0  0  0
   -0.9886    6.7980   -0.1786 H   0  0  0  0  0  0  0  0  0  0  0  0
   -1.0611    4.3124   -1.6396 H   0  0  0  0  0  0  0  0  0  0  0  0
    0.0202    2.0926   -1.7113 H   0  0  0  0  0  0  0  0  0  0  0  0
  1  2  1  0
  1 27  1  0
  1 28  1  0
  1 29  1  0
  2  3  1  0
  2  4  1  0
  2 30  1  0
  3 31  1  0
  3 32  1  0
  3 33  1  0
  4  5  2  0
  4 16  1  0
  5  6  1  0
  6  7  2  0
  6 11  1  0
  7  8  1  0
  7 16  1  0
  8  9  2  0
  9 10  1  0
  9 12  1  0
 10 11  2  0
 10 34  1  0
 11 35  1  0
 12 13  1  0
 12 14  1  0
 12 15  1  0
 16 17  1  0
 17 18  2  0
 17 26  1  0
 18 19  1  0
 18 36  1  0
 19 20  2  0
 19 23  1  0
 20 21  1  0
 20 25  1  0
 21 22  1  0
 21 37  1  0
 22 23  2  0
 23 24  1  0
 25 26  2  0
 25 38  1  0
 26 39  1  0
M  END
>  <group_name>  (1) 
JNS

>  <molecule_index>  (1) 
01595

>  <conformer_index>  (1) 
03

>  <method>  (1) 
openff-1.3.0

>  <basis>  (1) 
smirnoff

>  <program>  (1) 
openmm

>  <initial_energy>  (1) 
155.77820285583692 kilocalorie / mole

>  <final_energy>  (1) 
145.08421118329727 kilocalorie / mole

$$$$
