JNS-01082-06
     RDKit          3D

 43 46  0  0  0  0  0  0  0  0999 V2000
   -1.6899    3.2219    0.0933 C   0  0  0  0  0  0  0  0  0  0  0  0
   -0.1738    3.4622    0.1155 C   0  0  2  0  0  0  0  0  0  0  0  0
    0.2708    4.3240   -1.0800 C   0  0  0  0  0  0  0  0  0  0  0  0
    0.1487    3.5322   -2.3599 C   0  0  0  0  0  0  0  0  0  0  0  0
    0.4067    2.2008   -2.3396 C   0  0  0  0  0  0  0  0  0  0  0  0
    0.8437    1.4556   -1.1044 C   0  0  0  0  0  0  0  0  0  0  0  0
    0.5390    2.1712    0.1525 N   0  0  0  0  0  0  0  0  0  0  0  0
    0.7406    1.5387    1.3757 C   0  0  0  0  0  0  0  0  0  0  0  0
    0.2655    2.0224    2.4002 O   0  0  0  0  0  0  0  0  0  0  0  0
    1.4312    0.2508    1.4990 C   0  0  0  0  0  0  0  0  0  0  0  0
    2.7789    0.0935    1.1493 C   0  0  0  0  0  0  0  0  0  0  0  0
    3.4848    1.1655    0.6983 F   0  0  0  0  0  0  0  0  0  0  0  0
    3.4002   -1.1719    1.2982 C   0  0  0  0  0  0  0  0  0  0  0  0
    2.7164   -2.2452    1.7934 N   0  0  0  0  0  0  0  0  0  0  0  0
    1.4338   -2.0771    2.1595 C   0  0  0  0  0  0  0  0  0  0  0  0
    0.7693   -0.8586    2.0318 C   0  0  0  0  0  0  0  0  0  0  0  0
    4.8695   -1.3200    0.8918 C   0  0  0  0  0  0  0  0  0  0  0  0
    5.0260   -0.9944   -0.4251 F   0  0  0  0  0  0  0  0  0  0  0  0
    5.3321   -2.5948    1.0572 F   0  0  0  0  0  0  0  0  0  0  0  0
    5.6531   -0.4955    1.6470 F   0  0  0  0  0  0  0  0  0  0  0  0
    0.1204    1.6336   -3.5634 N   0  0  0  0  0  0  0  0  0  0  0  0
   -0.3005    2.5934   -4.3465 N   0  0  0  0  0  0  0  0  0  0  0  0
   -0.2922    3.7723   -3.6578 N   0  0  0  0  0  0  0  0  0  0  0  0
   -0.6431    5.0192   -4.2286 C   0  0  0  0  0  0  0  0  0  0  0  0
   -0.5011    6.1426   -3.4901 N   0  0  0  0  0  0  0  0  0  0  0  0
   -0.8251    7.3106   -4.0499 C   0  0  0  0  0  0  0  0  0  0  0  0
   -1.3006    7.4045   -5.3512 C   0  0  0  0  0  0  0  0  0  0  0  0
   -1.6388    8.6115   -5.9376 O   0  0  0  0  0  0  0  0  0  0  0  0
   -1.4227    6.2101   -6.0470 C   0  0  0  0  0  0  0  0  0  0  0  0
   -1.1007    5.0357   -5.4988 N   0  0  0  0  0  0  0  0  0  0  0  0
   -2.0001    2.6809    0.9923 H   0  0  0  0  0  0  0  0  0  0  0  0
   -1.9839    2.6346   -0.7819 H   0  0  0  0  0  0  0  0  0  0  0  0
   -2.2248    4.1758    0.0696 H   0  0  0  0  0  0  0  0  0  0  0  0
    0.0619    4.0341    1.0202 H   0  0  0  0  0  0  0  0  0  0  0  0
   -0.3360    5.2320   -1.1142 H   0  0  0  0  0  0  0  0  0  0  0  0
    1.3142    4.6256   -0.9460 H   0  0  0  0  0  0  0  0  0  0  0  0
    1.9201    1.2919   -1.1941 H   0  0  0  0  0  0  0  0  0  0  0  0
    0.3493    0.4790   -1.1048 H   0  0  0  0  0  0  0  0  0  0  0  0
    0.8954   -2.9263    2.5706 H   0  0  0  0  0  0  0  0  0  0  0  0
   -0.2653   -0.7789    2.3537 H   0  0  0  0  0  0  0  0  0  0  0  0
   -0.7110    8.2161   -3.4612 H   0  0  0  0  0  0  0  0  0  0  0  0
   -1.4903    9.3696   -5.3445 H   0  0  0  0  0  0  0  0  0  0  0  0
   -1.7907    6.2291   -7.0690 H   0  0  0  0  0  0  0  0  0  0  0  0
  1  2  1  0
  1 31  1  0
  1 32  1  0
  1 33  1  0
  2  3  1  0
  2  7  1  0
  2 34  1  1
  3  4  1  0
  3 35  1  0
  3 36  1  0
  4  5  2  0
  4 23  1  0
  5  6  1  0
  5 21  1  0
  6  7  1  0
  6 37  1  0
  6 38  1  0
  7  8  1  0
  8  9  2  0
  8 10  1  0
 10 11  2  0
 10 16  1  0
 11 12  1  0
 11 13  1  0
 13 14  2  0
 13 17  1  0
 14 15  1  0
 15 16  2  0
 15 39  1  0
 16 40  1  0
 17 18  1  0
 17 19  1  0
 17 20  1  0
 21 22  2  0
 22 23  1  0
 23 24  1  0
 24 25  2  0
 24 30  1  0
 25 26  1  0
 26 27  2  0
 26 41  1  0
 27 28  1  0
 27 29  1  0
 28 42  1  0
 29 30  2  0
 29 43  1  0
M  END
>  <group_name>  (1) 
JNS

>  <molecule_index>  (1) 
01082

>  <conformer_index>  (1) 
06

>  <method>  (1) 
openff-1.3.0

>  <basis>  (1) 
smirnoff

>  <program>  (1) 
openmm

>  <initial_energy>  (1) 
114.68617040632043 kilocalorie / mole

>  <final_energy>  (1) 
102.60254523895394 kilocalorie / mole

$$$$
