JNS-02002-05
     RDKit          3D

 38 40  0  0  0  0  0  0  0  0999 V2000
    1.2809   -1.5177   -1.9230 C   0  0  0  0  0  0  0  0  0  0  0  0
    1.8295   -0.5873   -0.8815 C   0  0  0  0  0  0  0  0  0  0  0  0
    1.3831   -0.7036    0.3774 N   0  0  0  0  0  0  0  0  0  0  0  0
    1.8685    0.1408    1.3227 C   0  0  0  0  0  0  0  0  0  0  0  0
    2.8176    1.1197    0.9848 C   0  0  0  0  0  0  0  0  0  0  0  0
    3.2831    1.2533   -0.3152 C   0  0  0  0  0  0  0  0  0  0  0  0
    2.7670    0.3729   -1.2533 C   0  0  0  0  0  0  0  0  0  0  0  0
    4.2283    2.2286   -0.6622 N   0  0  0  0  0  0  0  0  0  0  0  0
    4.8097    2.3469   -2.0026 C   0  0  0  0  0  0  0  0  0  0  0  0
    5.9350    3.3483   -1.7782 C   0  0  0  0  0  0  0  0  0  0  0  0
    5.4076    4.2603   -0.6607 C   0  0  2  0  0  0  0  0  0  0  0  0
    4.4486    5.3456   -1.2076 C   0  0  0  0  0  0  0  0  0  0  0  0
    4.9035    6.6322   -0.5404 C   0  0  0  0  0  0  0  0  0  0  0  0
    6.3406    6.4035   -0.4409 N   0  0  0  0  0  0  0  0  0  0  0  0
    6.5075    5.0438    0.0676 C   0  0  0  0  0  0  0  0  0  0  0  0
    4.6938    3.2674    0.2650 C   0  0  0  0  0  0  0  0  0  0  0  0
    1.3958    0.0503    2.7818 C   0  0  0  0  0  0  0  0  0  0  0  0
    0.8431    1.2401    3.1648 F   0  0  0  0  0  0  0  0  0  0  0  0
    2.4616   -0.1988    3.6001 F   0  0  0  0  0  0  0  0  0  0  0  0
    0.4672   -0.9316    2.9868 F   0  0  0  0  0  0  0  0  0  0  0  0
    2.0711   -2.1851   -2.2770 H   0  0  0  0  0  0  0  0  0  0  0  0
    0.8869   -0.9450   -2.7668 H   0  0  0  0  0  0  0  0  0  0  0  0
    0.4716   -2.1238   -1.5047 H   0  0  0  0  0  0  0  0  0  0  0  0
    3.1819    1.7669    1.7726 H   0  0  0  0  0  0  0  0  0  0  0  0
    3.0746    0.4140   -2.2897 H   0  0  0  0  0  0  0  0  0  0  0  0
    4.0708    2.7431   -2.7068 H   0  0  0  0  0  0  0  0  0  0  0  0
    5.2071    1.3947   -2.3690 H   0  0  0  0  0  0  0  0  0  0  0  0
    6.1905    3.8875   -2.6953 H   0  0  0  0  0  0  0  0  0  0  0  0
    6.8249    2.8141   -1.4291 H   0  0  0  0  0  0  0  0  0  0  0  0
    3.3959    5.1378   -0.9901 H   0  0  0  0  0  0  0  0  0  0  0  0
    4.5566    5.4470   -2.2919 H   0  0  0  0  0  0  0  0  0  0  0  0
    4.6582    7.5194   -1.1337 H   0  0  0  0  0  0  0  0  0  0  0  0
    4.4581    6.7257    0.4564 H   0  0  0  0  0  0  0  0  0  0  0  0
    6.7491    6.4657   -1.3735 H   0  0  0  0  0  0  0  0  0  0  0  0
    7.5108    4.6538   -0.1343 H   0  0  0  0  0  0  0  0  0  0  0  0
    6.3360    5.0267    1.1499 H   0  0  0  0  0  0  0  0  0  0  0  0
    3.8642    3.7501    0.7921 H   0  0  0  0  0  0  0  0  0  0  0  0
    5.3908    2.8393    0.9932 H   0  0  0  0  0  0  0  0  0  0  0  0
  1  2  1  0
  1 21  1  0
  1 22  1  0
  1 23  1  0
  2  3  2  0
  2  7  1  0
  3  4  1  0
  4  5  2  0
  4 17  1  0
  5  6  1  0
  5 24  1  0
  6  7  2  0
  6  8  1  0
  7 25  1  0
  8  9  1  0
  8 16  1  0
  9 10  1  0
  9 26  1  0
  9 27  1  0
 11 10  1  6
 10 28  1  0
 10 29  1  0
 11 12  1  0
 11 15  1  0
 11 16  1  0
 12 13  1  0
 12 30  1  0
 12 31  1  0
 13 14  1  0
 13 32  1  0
 13 33  1  0
 14 15  1  0
 14 34  1  0
 15 35  1  0
 15 36  1  0
 16 37  1  0
 16 38  1  0
 17 18  1  0
 17 19  1  0
 17 20  1  0
M  END
>  <group_name>  (1) 
JNS

>  <molecule_index>  (1) 
02002

>  <conformer_index>  (1) 
05

>  <method>  (1) 
openff-1.3.0

>  <basis>  (1) 
smirnoff

>  <program>  (1) 
openmm

>  <initial_energy>  (1) 
39.68991741440679 kilocalorie / mole

>  <final_energy>  (1) 
31.107934246257066 kilocalorie / mole

$$$$
