JNS-00690-08
     RDKit          3D

 38 42  0  0  0  0  0  0  0  0999 V2000
   -0.7889   -1.4468    1.0175 O   0  0  0  0  0  0  0  0  0  0  0  0
   -0.1439   -0.6145    0.0382 C   0  0  0  0  0  0  0  0  0  0  0  0
   -1.0023    0.5059   -0.5392 C   0  0  0  0  0  0  0  0  0  0  0  0
   -0.7599   -0.7566   -1.3521 C   0  0  0  0  0  0  0  0  0  0  0  0
    1.3645   -0.3825    0.1575 C   0  0  0  0  0  0  0  0  0  0  0  0
    2.1544   -0.3144   -0.8930 N   0  0  0  0  0  0  0  0  0  0  0  0
    3.4320   -0.1892   -0.3748 C   0  0  0  0  0  0  0  0  0  0  0  0
    3.4209   -0.1714    1.0059 C   0  0  0  0  0  0  0  0  0  0  0  0
    4.5306   -0.0564    1.7631 N   0  0  0  0  0  0  0  0  0  0  0  0
    5.7265    0.0400    1.1155 C   0  0  0  0  0  0  0  0  0  0  0  0
    5.7873    0.0216   -0.2994 C   0  0  0  0  0  0  0  0  0  0  0  0
    4.6261   -0.0940   -1.0648 C   0  0  0  0  0  0  0  0  0  0  0  0
    7.0367    0.1631    1.9042 C   0  0  0  0  0  0  0  0  0  0  0  0
    7.8904   -0.8397    1.5416 F   0  0  0  0  0  0  0  0  0  0  0  0
    7.6376    1.3550    1.6158 F   0  0  0  0  0  0  0  0  0  0  0  0
    6.8533    0.0913    3.2567 F   0  0  0  0  0  0  0  0  0  0  0  0
    2.0867   -0.2569    1.3582 N   0  0  0  0  0  0  0  0  0  0  0  0
    1.5727   -0.1442    2.6661 C   0  0  0  0  0  0  0  0  0  0  0  0
    0.3840    0.5697    2.9275 C   0  0  0  0  0  0  0  0  0  0  0  0
   -0.1072    0.6474    4.2336 C   0  0  0  0  0  0  0  0  0  0  0  0
    0.5573    0.0586    5.2758 C   0  0  0  0  0  0  0  0  0  0  0  0
   -0.1916    0.3364    6.4070 N   0  0  0  0  0  0  0  0  0  0  0  0
   -1.2987    1.0774    6.1108 N   0  0  0  0  0  0  0  0  0  0  0  0
   -1.2715    1.2807    4.8144 C   0  0  0  0  0  0  0  0  0  0  0  0
    1.7476   -0.6342    5.0607 C   0  0  0  0  0  0  0  0  0  0  0  0
    2.2527   -0.7308    3.7560 C   0  0  0  0  0  0  0  0  0  0  0  0
   -0.2845   -1.4599    1.8526 H   0  0  0  0  0  0  0  0  0  0  0  0
   -0.4941    1.4198   -0.8628 H   0  0  0  0  0  0  0  0  0  0  0  0
   -2.0041    0.6422   -0.1205 H   0  0  0  0  0  0  0  0  0  0  0  0
   -0.1014   -0.6849   -2.2234 H   0  0  0  0  0  0  0  0  0  0  0  0
   -1.5935   -1.4570   -1.4625 H   0  0  0  0  0  0  0  0  0  0  0  0
    6.7511    0.0990   -0.7940 H   0  0  0  0  0  0  0  0  0  0  0  0
    4.6377   -0.1111   -2.1510 H   0  0  0  0  0  0  0  0  0  0  0  0
   -0.1538    1.0802    2.1346 H   0  0  0  0  0  0  0  0  0  0  0  0
    0.0633    0.0324    7.3475 H   0  0  0  0  0  0  0  0  0  0  0  0
   -2.0168    1.8420    4.2587 H   0  0  0  0  0  0  0  0  0  0  0  0
    2.2811   -1.0917    5.8885 H   0  0  0  0  0  0  0  0  0  0  0  0
    3.1787   -1.2767    3.5966 H   0  0  0  0  0  0  0  0  0  0  0  0
  1  2  1  0
  1 27  1  0
  2  3  1  0
  2  4  1  0
  2  5  1  0
  3  4  1  0
  3 28  1  0
  3 29  1  0
  4 30  1  0
  4 31  1  0
  5  6  2  0
  5 17  1  0
  6  7  1  0
  7  8  2  0
  7 12  1  0
  8  9  1  0
  8 17  1  0
  9 10  2  0
 10 11  1  0
 10 13  1  0
 11 12  2  0
 11 32  1  0
 12 33  1  0
 13 14  1  0
 13 15  1  0
 13 16  1  0
 17 18  1  0
 18 19  2  0
 18 26  1  0
 19 20  1  0
 19 34  1  0
 20 21  2  0
 20 24  1  0
 21 22  1  0
 21 25  1  0
 22 23  1  0
 22 35  1  0
 23 24  2  0
 24 36  1  0
 25 26  2  0
 25 37  1  0
 26 38  1  0
M  END
>  <group_name>  (1) 
JNS

>  <molecule_index>  (1) 
00690

>  <conformer_index>  (1) 
08

>  <method>  (1) 
openff-1.3.0

>  <basis>  (1) 
smirnoff

>  <program>  (1) 
openmm

>  <initial_energy>  (1) 
196.36743070694928 kilocalorie / mole

>  <final_energy>  (1) 
181.93627041280746 kilocalorie / mole

$$$$
