JNS-01358-00
     RDKit          3D

 41 45  0  0  0  0  0  0  0  0999 V2000
   -2.8280   -0.7827   -2.4672 F   0  0  0  0  0  0  0  0  0  0  0  0
   -2.1733   -0.5813   -1.2992 C   0  0  0  0  0  0  0  0  0  0  0  0
   -2.8590   -0.6826   -0.1469 N   0  0  0  0  0  0  0  0  0  0  0  0
   -2.1803   -0.4905    0.9950 C   0  0  0  0  0  0  0  0  0  0  0  0
   -0.8205   -0.1740    1.0321 C   0  0  0  0  0  0  0  0  0  0  0  0
   -0.0955   -0.0381   -0.1561 C   0  0  0  0  0  0  0  0  0  0  0  0
   -0.8129   -0.2685   -1.3337 C   0  0  0  0  0  0  0  0  0  0  0  0
    1.3487    0.2834   -0.1811 C   0  0  0  0  0  0  0  0  0  0  0  0
    2.1208   -0.1683   -1.1446 N   0  0  0  0  0  0  0  0  0  0  0  0
    3.4021    0.2129   -0.7838 C   0  0  0  0  0  0  0  0  0  0  0  0
    3.4071    0.9153    0.4055 C   0  0  0  0  0  0  0  0  0  0  0  0
    4.5225    1.4061    0.9815 N   0  0  0  0  0  0  0  0  0  0  0  0
    5.7088    1.1810    0.3486 C   0  0  0  0  0  0  0  0  0  0  0  0
    5.7538    0.4610   -0.8701 C   0  0  0  0  0  0  0  0  0  0  0  0
    4.5865   -0.0341   -1.4532 C   0  0  0  0  0  0  0  0  0  0  0  0
    7.0247    1.6985    0.9436 C   0  0  0  0  0  0  0  0  0  0  0  0
    7.8860    0.6556    1.1335 F   0  0  0  0  0  0  0  0  0  0  0  0
    7.6081    2.5768    0.0758 F   0  0  0  0  0  0  0  0  0  0  0  0
    6.8549    2.3306    2.1434 F   0  0  0  0  0  0  0  0  0  0  0  0
    2.0791    1.0071    0.7782 N   0  0  0  0  0  0  0  0  0  0  0  0
    1.5730    1.8779    1.7638 C   0  0  0  0  0  0  0  0  0  0  0  0
    0.4030    2.6330    1.5343 C   0  0  0  0  0  0  0  0  0  0  0  0
   -0.0819    3.4864    2.5289 C   0  0  0  0  0  0  0  0  0  0  0  0
    0.5836    3.6137    3.7354 C   0  0  0  0  0  0  0  0  0  0  0  0
   -0.0776    4.5173    4.5412 N   0  0  0  0  0  0  0  0  0  0  0  0
   -1.1047    5.0642    3.8278 C   0  0  0  0  0  0  0  0  0  0  0  0
   -1.6810    6.0751    4.2039 O   0  0  0  0  0  0  0  0  0  0  0  0
   -1.2820    4.3964    2.4694 C   0  0  0  0  0  0  0  0  0  0  0  0
    1.7535    2.9035    3.9816 C   0  0  0  0  0  0  0  0  0  0  0  0
    2.2461    2.0377    2.9944 C   0  0  0  0  0  0  0  0  0  0  0  0
   -2.7161   -0.5869    1.9350 H   0  0  0  0  0  0  0  0  0  0  0  0
   -0.3446   -0.0519    2.0001 H   0  0  0  0  0  0  0  0  0  0  0  0
   -0.3240   -0.2092   -2.3009 H   0  0  0  0  0  0  0  0  0  0  0  0
    6.7103    0.2934   -1.3565 H   0  0  0  0  0  0  0  0  0  0  0  0
    4.5869   -0.5895   -2.3871 H   0  0  0  0  0  0  0  0  0  0  0  0
   -0.1200    2.5794    0.5840 H   0  0  0  0  0  0  0  0  0  0  0  0
    0.3980    5.0994    5.2221 H   0  0  0  0  0  0  0  0  0  0  0  0
   -1.2102    5.1280    1.6611 H   0  0  0  0  0  0  0  0  0  0  0  0
   -2.2204    3.8389    2.4283 H   0  0  0  0  0  0  0  0  0  0  0  0
    2.2791    3.0157    4.9250 H   0  0  0  0  0  0  0  0  0  0  0  0
    3.1581    1.4818    3.1961 H   0  0  0  0  0  0  0  0  0  0  0  0
  1  2  1  0
  2  3  2  0
  2  7  1  0
  3  4  1  0
  4  5  2  0
  4 31  1  0
  5  6  1  0
  5 32  1  0
  6  7  2  0
  6  8  1  0
  7 33  1  0
  8  9  2  0
  8 20  1  0
  9 10  1  0
 10 11  2  0
 10 15  1  0
 11 12  1  0
 11 20  1  0
 12 13  2  0
 13 14  1  0
 13 16  1  0
 14 15  2  0
 14 34  1  0
 15 35  1  0
 16 17  1  0
 16 18  1  0
 16 19  1  0
 20 21  1  0
 21 22  2  0
 21 30  1  0
 22 23  1  0
 22 36  1  0
 23 24  2  0
 23 28  1  0
 24 25  1  0
 24 29  1  0
 25 26  1  0
 25 37  1  0
 26 27  2  0
 26 28  1  0
 28 38  1  0
 28 39  1  0
 29 30  2  0
 29 40  1  0
 30 41  1  0
M  END
>  <group_name>  (1) 
JNS

>  <molecule_index>  (1) 
01358

>  <conformer_index>  (1) 
00

>  <method>  (1) 
openff-1.3.0

>  <basis>  (1) 
smirnoff

>  <program>  (1) 
openmm

>  <initial_energy>  (1) 
98.23810672762121 kilocalorie / mole

>  <final_energy>  (1) 
85.89564281262791 kilocalorie / mole

$$$$
