JNS-01972-03
     RDKit          3D

 38 40  0  0  0  0  0  0  0  0999 V2000
   -0.4297    0.6714   -0.5596 F   0  0  0  0  0  0  0  0  0  0  0  0
    0.1028   -0.3221    0.2127 C   0  0  0  0  0  0  0  0  0  0  0  0
   -0.5431   -0.3521    1.4159 F   0  0  0  0  0  0  0  0  0  0  0  0
   -0.1899   -1.4973   -0.4222 F   0  0  0  0  0  0  0  0  0  0  0  0
    1.6180   -0.1321    0.4139 C   0  0  0  0  0  0  0  0  0  0  0  0
    2.4536   -1.1743    0.1428 N   0  0  0  0  0  0  0  0  0  0  0  0
    3.7819   -0.9924    0.2792 C   0  0  0  0  0  0  0  0  0  0  0  0
    4.3838    0.2204    0.6826 C   0  0  0  0  0  0  0  0  0  0  0  0
    3.5270    1.2840    0.9645 C   0  0  0  0  0  0  0  0  0  0  0  0
    2.1455    1.1202    0.8400 C   0  0  0  0  0  0  0  0  0  0  0  0
    1.3011    2.2715    1.1629 C   0  0  0  0  0  0  0  0  0  0  0  0
    1.2729    3.3822    0.3074 C   0  0  0  0  0  0  0  0  0  0  0  0
    0.4803    4.4946    0.6134 C   0  0  0  0  0  0  0  0  0  0  0  0
   -0.2857    4.5071    1.7836 C   0  0  0  0  0  0  0  0  0  0  0  0
   -0.2547    3.4079    2.6479 C   0  0  0  0  0  0  0  0  0  0  0  0
    0.5389    2.2968    2.3401 C   0  0  0  0  0  0  0  0  0  0  0  0
    5.7852    0.3729    0.8078 N   0  0  0  0  0  0  0  0  0  0  0  0
    6.4625    1.6781    0.6266 C   0  0  0  0  0  0  0  0  0  0  0  0
    7.5842    1.5542   -0.4227 C   0  0  0  0  0  0  0  0  0  0  0  0
    8.5016    0.4348   -0.1199 N   0  0  0  0  0  0  0  0  0  0  0  0
    7.7914   -0.8544    0.0180 C   0  0  0  0  0  0  0  0  0  0  0  0
    6.6907   -0.7660    1.0893 C   0  0  0  0  0  0  0  0  0  0  0  0
    4.4085   -1.8420    0.0311 H   0  0  0  0  0  0  0  0  0  0  0  0
    3.9081    2.2369    1.3146 H   0  0  0  0  0  0  0  0  0  0  0  0
    1.8630    3.3744   -0.6045 H   0  0  0  0  0  0  0  0  0  0  0  0
    0.4574    5.3466   -0.0600 H   0  0  0  0  0  0  0  0  0  0  0  0
   -0.9042    5.3682    2.0208 H   0  0  0  0  0  0  0  0  0  0  0  0
   -0.8470    3.4144    3.5584 H   0  0  0  0  0  0  0  0  0  0  0  0
    0.5636    1.4505    3.0210 H   0  0  0  0  0  0  0  0  0  0  0  0
    6.8895    1.9989    1.5820 H   0  0  0  0  0  0  0  0  0  0  0  0
    5.7686    2.4524    0.2897 H   0  0  0  0  0  0  0  0  0  0  0  0
    8.1425    2.4948   -0.4661 H   0  0  0  0  0  0  0  0  0  0  0  0
    7.1263    1.3916   -1.4041 H   0  0  0  0  0  0  0  0  0  0  0  0
    9.2396    0.3699   -0.8222 H   0  0  0  0  0  0  0  0  0  0  0  0
    8.4985   -1.6445    0.2901 H   0  0  0  0  0  0  0  0  0  0  0  0
    7.3332   -1.1270   -0.9386 H   0  0  0  0  0  0  0  0  0  0  0  0
    6.1576   -1.7176    1.1470 H   0  0  0  0  0  0  0  0  0  0  0  0
    7.1597   -0.6087    2.0659 H   0  0  0  0  0  0  0  0  0  0  0  0
  1  2  1  0
  2  3  1  0
  2  4  1  0
  2  5  1  0
  5  6  2  0
  5 10  1  0
  6  7  1  0
  7  8  2  0
  7 23  1  0
  8  9  1  0
  8 17  1  0
  9 10  2  0
  9 24  1  0
 10 11  1  0
 11 12  2  0
 11 16  1  0
 12 13  1  0
 12 25  1  0
 13 14  2  0
 13 26  1  0
 14 15  1  0
 14 27  1  0
 15 16  2  0
 15 28  1  0
 16 29  1  0
 17 18  1  0
 17 22  1  0
 18 19  1  0
 18 30  1  0
 18 31  1  0
 19 20  1  0
 19 32  1  0
 19 33  1  0
 20 21  1  0
 20 34  1  0
 21 22  1  0
 21 35  1  0
 21 36  1  0
 22 37  1  0
 22 38  1  0
M  END
>  <group_name>  (1) 
JNS

>  <molecule_index>  (1) 
01972

>  <conformer_index>  (1) 
03

>  <method>  (1) 
openff-1.3.0

>  <basis>  (1) 
smirnoff

>  <program>  (1) 
openmm

>  <initial_energy>  (1) 
188.70254242656415 kilocalorie / mole

>  <final_energy>  (1) 
181.96387961725378 kilocalorie / mole

$$$$
