JNS-02456-05
     RDKit          3D

 41 44  0  0  0  0  0  0  0  0999 V2000
   -2.9726    2.7481    0.7006 F   0  0  0  0  0  0  0  0  0  0  0  0
   -2.0952    2.0965    1.5198 C   0  0  0  0  0  0  0  0  0  0  0  0
   -1.1256    2.9817    1.8982 F   0  0  0  0  0  0  0  0  0  0  0  0
   -2.7735    1.7054    2.6391 F   0  0  0  0  0  0  0  0  0  0  0  0
   -1.5337    0.8642    0.7992 C   0  0  0  0  0  0  0  0  0  0  0  0
   -0.1990    0.7347    0.5715 N   0  0  0  0  0  0  0  0  0  0  0  0
    0.2668   -0.3571   -0.0670 C   0  0  0  0  0  0  0  0  0  0  0  0
   -0.6032   -1.3768   -0.4898 C   0  0  0  0  0  0  0  0  0  0  0  0
   -1.9707   -1.2719   -0.2707 C   0  0  0  0  0  0  0  0  0  0  0  0
   -2.4316   -0.1351    0.3789 C   0  0  0  0  0  0  0  0  0  0  0  0
    1.7130   -0.4562   -0.3019 C   0  0  0  0  0  0  0  0  0  0  0  0
    2.6018    0.2905    0.5061 C   0  0  0  0  0  0  0  0  0  0  0  0
    3.9465    0.2596    0.3794 N   0  0  0  0  0  0  0  0  0  0  0  0
    4.4179   -0.5288   -0.5915 C   0  0  0  0  0  0  0  0  0  0  0  0
    5.7949   -0.7540   -0.9492 C   0  0  0  0  0  0  0  0  0  0  0  0
    5.8100   -1.6446   -2.0039 C   0  0  0  0  0  0  0  0  0  0  0  0
    4.4877   -1.9817   -2.3026 N   0  0  0  0  0  0  0  0  0  0  0  0
    4.0649   -2.9425   -3.3303 C   0  0  0  0  0  0  0  0  0  0  0  0
    3.2416   -4.1114   -2.7872 C   0  0  0  0  0  0  0  0  0  0  0  0
    2.3280   -4.5469   -3.4800 O   0  0  0  0  0  0  0  0  0  0  0  0
    3.3983   -4.6339   -1.5132 N   0  0  0  0  0  0  0  0  0  0  0  0
    4.6082   -4.6437   -0.7364 C   0  0  0  0  0  0  0  0  0  0  0  0
    4.1769   -6.0414   -0.2213 C   0  0  0  0  0  0  0  0  0  0  0  0
    5.0082   -7.0448   -0.6234 F   0  0  0  0  0  0  0  0  0  0  0  0
    3.9271   -6.0762    1.1184 F   0  0  0  0  0  0  0  0  0  0  0  0
    2.8982   -5.9129   -1.0887 C   0  0  0  0  0  0  0  0  0  0  0  0
    3.6355   -1.2917   -1.4425 C   0  0  0  0  0  0  0  0  0  0  0  0
    2.2524   -1.2651   -1.3175 C   0  0  0  0  0  0  0  0  0  0  0  0
   -0.2218   -2.2661   -0.9768 H   0  0  0  0  0  0  0  0  0  0  0  0
   -2.6552   -2.0537   -0.5927 H   0  0  0  0  0  0  0  0  0  0  0  0
   -3.4941   -0.0135    0.5700 H   0  0  0  0  0  0  0  0  0  0  0  0
    2.2076    0.9243    1.2953 H   0  0  0  0  0  0  0  0  0  0  0  0
    6.6478   -0.2883   -0.4678 H   0  0  0  0  0  0  0  0  0  0  0  0
    6.6981   -2.0123   -2.5122 H   0  0  0  0  0  0  0  0  0  0  0  0
    4.9435   -3.3511   -3.8338 H   0  0  0  0  0  0  0  0  0  0  0  0
    3.4691   -2.4170   -4.0809 H   0  0  0  0  0  0  0  0  0  0  0  0
    4.6484   -3.8757    0.0433 H   0  0  0  0  0  0  0  0  0  0  0  0
    5.5342   -4.6586   -1.3193 H   0  0  0  0  0  0  0  0  0  0  0  0
    2.8239   -6.6620   -1.8839 H   0  0  0  0  0  0  0  0  0  0  0  0
    1.9701   -5.8639   -0.5113 H   0  0  0  0  0  0  0  0  0  0  0  0
    1.6384   -1.8456   -1.9997 H   0  0  0  0  0  0  0  0  0  0  0  0
  1  2  1  0
  2  3  1  0
  2  4  1  0
  2  5  1  0
  5  6  2  0
  5 10  1  0
  6  7  1  0
  7  8  2  0
  7 11  1  0
  8  9  1  0
  8 29  1  0
  9 10  2  0
  9 30  1  0
 10 31  1  0
 11 12  2  0
 11 28  1  0
 12 13  1  0
 12 32  1  0
 13 14  2  0
 14 15  1  0
 14 27  1  0
 15 16  2  0
 15 33  1  0
 16 17  1  0
 16 34  1  0
 17 18  1  0
 17 27  1  0
 18 19  1  0
 18 35  1  0
 18 36  1  0
 19 20  2  0
 19 21  1  0
 21 22  1  0
 21 26  1  0
 22 23  1  0
 22 37  1  0
 22 38  1  0
 23 24  1  0
 23 25  1  0
 23 26  1  0
 26 39  1  0
 26 40  1  0
 27 28  2  0
 28 41  1  0
M  END
>  <group_name>  (1) 
JNS

>  <molecule_index>  (1) 
02456

>  <conformer_index>  (1) 
05

>  <method>  (1) 
openff-1.3.0

>  <basis>  (1) 
smirnoff

>  <program>  (1) 
openmm

>  <initial_energy>  (1) 
144.88424080568052 kilocalorie / mole

>  <final_energy>  (1) 
129.76520874159868 kilocalorie / mole

$$$$
