JNS-01002-02
     RDKit          3D

 37 38  0  0  0  0  0  0  0  0999 V2000
   -3.0309   -2.3565    0.1306 C   0  0  0  0  0  0  0  0  0  0  0  0
   -2.1771   -1.1262    0.0396 C   0  0  0  0  0  0  0  0  0  0  0  0
   -2.7551    0.0285   -0.3262 N   0  0  0  0  0  0  0  0  0  0  0  0
   -1.9911    1.1494   -0.4013 C   0  0  0  0  0  0  0  0  0  0  0  0
   -0.6196    1.0961   -0.0990 C   0  0  0  0  0  0  0  0  0  0  0  0
   -0.0232   -0.0879    0.2786 C   0  0  0  0  0  0  0  0  0  0  0  0
    1.3330   -0.1026    0.5703 N   0  0  0  0  0  0  0  0  0  0  0  0
    2.0823   -1.3120    0.9255 C   0  0  0  0  0  0  0  0  0  0  0  0
    3.5725   -0.9863    1.0683 C   0  0  2  0  0  0  0  0  0  0  0  0
    4.1922   -0.5403   -0.2740 C   0  0  0  0  0  0  0  0  0  0  0  0
    5.7069   -0.3405   -0.1293 C   0  0  0  0  0  0  0  0  0  0  0  0
    6.3719   -1.5972    0.4329 C   0  0  0  0  0  0  0  0  0  0  0  0
    5.7399   -1.9430    1.7123 N   0  0  0  0  0  0  0  0  0  0  0  0
    4.3038   -2.2273    1.5976 C   0  0  0  0  0  0  0  0  0  0  0  0
   -0.8217   -1.2137    0.3491 C   0  0  0  0  0  0  0  0  0  0  0  0
   -2.6004    2.4976   -0.8164 C   0  0  0  0  0  0  0  0  0  0  0  0
   -1.9695    2.9667   -1.9341 F   0  0  0  0  0  0  0  0  0  0  0  0
   -2.4212    3.4141    0.1813 F   0  0  0  0  0  0  0  0  0  0  0  0
   -3.9383    2.4230   -1.0864 F   0  0  0  0  0  0  0  0  0  0  0  0
   -4.0839   -2.1020   -0.0232 H   0  0  0  0  0  0  0  0  0  0  0  0
   -2.7287   -3.0750   -0.6358 H   0  0  0  0  0  0  0  0  0  0  0  0
   -2.9237   -2.8146    1.1175 H   0  0  0  0  0  0  0  0  0  0  0  0
   -0.0293    2.0028   -0.1654 H   0  0  0  0  0  0  0  0  0  0  0  0
    1.8486    0.7705    0.4816 H   0  0  0  0  0  0  0  0  0  0  0  0
    1.7037   -1.7070    1.8744 H   0  0  0  0  0  0  0  0  0  0  0  0
    1.9476   -2.0770    0.1531 H   0  0  0  0  0  0  0  0  0  0  0  0
    3.6880   -0.1804    1.8006 H   0  0  0  0  0  0  0  0  0  0  0  0
    3.7375    0.3955   -0.6132 H   0  0  0  0  0  0  0  0  0  0  0  0
    3.9991   -1.2995   -1.0397 H   0  0  0  0  0  0  0  0  0  0  0  0
    6.1428   -0.1003   -1.1038 H   0  0  0  0  0  0  0  0  0  0  0  0
    5.9015    0.5033    0.5404 H   0  0  0  0  0  0  0  0  0  0  0  0
    7.4427   -1.4188    0.5780 H   0  0  0  0  0  0  0  0  0  0  0  0
    6.2632   -2.4250   -0.2766 H   0  0  0  0  0  0  0  0  0  0  0  0
    5.8976   -1.1982    2.3916 H   0  0  0  0  0  0  0  0  0  0  0  0
    3.9038   -2.5066    2.5783 H   0  0  0  0  0  0  0  0  0  0  0  0
    4.1459   -3.0732    0.9190 H   0  0  0  0  0  0  0  0  0  0  0  0
   -0.4149   -2.1723    0.6432 H   0  0  0  0  0  0  0  0  0  0  0  0
  1  2  1  0
  1 20  1  0
  1 21  1  0
  1 22  1  0
  2  3  2  0
  2 15  1  0
  3  4  1  0
  4  5  2  0
  4 16  1  0
  5  6  1  0
  5 23  1  0
  6  7  1  0
  6 15  2  0
  7  8  1  0
  7 24  1  0
  8  9  1  0
  8 25  1  0
  8 26  1  0
  9 10  1  0
  9 14  1  0
  9 27  1  1
 10 11  1  0
 10 28  1  0
 10 29  1  0
 11 12  1  0
 11 30  1  0
 11 31  1  0
 12 13  1  0
 12 32  1  0
 12 33  1  0
 13 14  1  0
 13 34  1  0
 14 35  1  0
 14 36  1  0
 15 37  1  0
 16 17  1  0
 16 18  1  0
 16 19  1  0
M  END
>  <group_name>  (1) 
JNS

>  <molecule_index>  (1) 
01002

>  <conformer_index>  (1) 
02

>  <method>  (1) 
openff-1.3.0

>  <basis>  (1) 
smirnoff

>  <program>  (1) 
openmm

>  <initial_energy>  (1) 
3.8852210517309005 kilocalorie / mole

>  <final_energy>  (1) 
-3.153794214807678 kilocalorie / mole

$$$$
