JNS-01558-04
     RDKit          3D

 42 46  0  0  0  0  0  0  0  0999 V2000
   -0.5163   -0.0862   -0.4228 F   0  0  0  0  0  0  0  0  0  0  0  0
    0.0792    0.3918    0.7096 C   0  0  0  0  0  0  0  0  0  0  0  0
   -0.4329   -0.2859    1.7810 F   0  0  0  0  0  0  0  0  0  0  0  0
   -0.2645    1.7073    0.8435 F   0  0  0  0  0  0  0  0  0  0  0  0
    1.6014    0.2611    0.5909 C   0  0  0  0  0  0  0  0  0  0  0  0
    2.2977   -0.5302    1.4551 N   0  0  0  0  0  0  0  0  0  0  0  0
    3.6356   -0.5907    1.3054 C   0  0  0  0  0  0  0  0  0  0  0  0
    4.5635   -1.3183    2.0026 C   0  0  0  0  0  0  0  0  0  0  0  0
    5.7934   -0.9804    1.4156 N   0  0  0  0  0  0  0  0  0  0  0  0
    5.6095   -0.1431    0.3536 N   0  0  0  0  0  0  0  0  0  0  0  0
    4.3265    0.0920    0.3197 C   0  0  0  0  0  0  0  0  0  0  0  0
    3.6497    0.9023   -0.5760 C   0  0  0  0  0  0  0  0  0  0  0  0
    2.2657    0.9842   -0.4284 C   0  0  0  0  0  0  0  0  0  0  0  0
    7.0819   -1.2812    1.9049 C   0  0  0  0  0  0  0  0  0  0  0  0
    8.1772   -1.3180    1.0193 C   0  0  0  0  0  0  0  0  0  0  0  0
    9.4682   -1.6062    1.4773 C   0  0  0  0  0  0  0  0  0  0  0  0
    9.6902   -1.8515    2.8342 C   0  0  0  0  0  0  0  0  0  0  0  0
    8.6220   -1.7978    3.7326 C   0  0  0  0  0  0  0  0  0  0  0  0
    7.3314   -1.5083    3.2743 C   0  0  0  0  0  0  0  0  0  0  0  0
    4.2646   -2.2993    3.0629 C   0  0  0  0  0  0  0  0  0  0  0  0
    4.9628   -3.5243    3.1250 C   0  0  0  0  0  0  0  0  0  0  0  0
    4.6794   -4.4641    4.1268 C   0  0  0  0  0  0  0  0  0  0  0  0
    3.6904   -4.1760    5.0617 C   0  0  0  0  0  0  0  0  0  0  0  0
    3.2369   -4.9387    6.1176 N   0  0  0  0  0  0  0  0  0  0  0  0
    2.1653   -4.3065    6.6798 C   0  0  0  0  0  0  0  0  0  0  0  0
    1.4251   -4.8821    7.4655 O   0  0  0  0  0  0  0  0  0  0  0  0
    1.9269   -2.9272    6.0769 C   0  0  0  0  0  0  0  0  0  0  0  0
    2.9824   -2.9884    5.0032 C   0  0  0  0  0  0  0  0  0  0  0  0
    3.2535   -2.0444    4.0090 C   0  0  0  0  0  0  0  0  0  0  0  0
    4.1806    1.4429   -1.3549 H   0  0  0  0  0  0  0  0  0  0  0  0
    1.6891    1.6073   -1.1048 H   0  0  0  0  0  0  0  0  0  0  0  0
    8.0263   -1.1287   -0.0406 H   0  0  0  0  0  0  0  0  0  0  0  0
   10.2983   -1.6368    0.7765 H   0  0  0  0  0  0  0  0  0  0  0  0
   10.6924   -2.0739    3.1912 H   0  0  0  0  0  0  0  0  0  0  0  0
    8.7946   -1.9721    4.7914 H   0  0  0  0  0  0  0  0  0  0  0  0
    6.5320   -1.4408    4.0062 H   0  0  0  0  0  0  0  0  0  0  0  0
    5.7251   -3.7544    2.3856 H   0  0  0  0  0  0  0  0  0  0  0  0
    5.2209   -5.4038    4.1713 H   0  0  0  0  0  0  0  0  0  0  0  0
    3.2399   -5.9524    6.1048 H   0  0  0  0  0  0  0  0  0  0  0  0
    0.9190   -2.8474    5.6623 H   0  0  0  0  0  0  0  0  0  0  0  0
    2.1273   -2.1400    6.8069 H   0  0  0  0  0  0  0  0  0  0  0  0
    2.6803   -1.1218    3.9692 H   0  0  0  0  0  0  0  0  0  0  0  0
  1  2  1  0
  2  3  1  0
  2  4  1  0
  2  5  1  0
  5  6  2  0
  5 13  1  0
  6  7  1  0
  7  8  2  0
  7 11  1  0
  8  9  1  0
  8 20  1  0
  9 10  1  0
  9 14  1  0
 10 11  2  0
 11 12  1  0
 12 13  2  0
 12 30  1  0
 13 31  1  0
 14 15  2  0
 14 19  1  0
 15 16  1  0
 15 32  1  0
 16 17  2  0
 16 33  1  0
 17 18  1  0
 17 34  1  0
 18 19  2  0
 18 35  1  0
 19 36  1  0
 20 21  2  0
 20 29  1  0
 21 22  1  0
 21 37  1  0
 22 23  2  0
 22 38  1  0
 23 24  1  0
 23 28  1  0
 24 25  1  0
 24 39  1  0
 25 26  2  0
 25 27  1  0
 27 28  1  0
 27 40  1  0
 27 41  1  0
 28 29  2  0
 29 42  1  0
M  END
>  <group_name>  (1) 
JNS

>  <molecule_index>  (1) 
01558

>  <conformer_index>  (1) 
04

>  <method>  (1) 
openff-1.3.0

>  <basis>  (1) 
smirnoff

>  <program>  (1) 
openmm

>  <initial_energy>  (1) 
131.09560373758342 kilocalorie / mole

>  <final_energy>  (1) 
118.03171200526063 kilocalorie / mole

$$$$
