JNS-01658-03
     RDKit          3D

 38 41  0  0  0  0  0  0  0  0999 V2000
   -0.3378   -2.1870   -1.7489 C   0  0  0  0  0  0  0  0  0  0  0  0
   -0.7561   -0.9583   -0.9908 C   0  0  0  0  0  0  0  0  0  0  0  0
   -2.0296   -0.6819   -0.8470 N   0  0  0  0  0  0  0  0  0  0  0  0
   -2.0521    0.5507   -0.2147 C   0  0  0  0  0  0  0  0  0  0  0  0
   -0.7757    1.0257    0.0236 C   0  0  0  0  0  0  0  0  0  0  0  0
   -0.5150    2.2007    0.6310 N   0  0  0  0  0  0  0  0  0  0  0  0
   -1.5797    2.9586    1.0189 C   0  0  0  0  0  0  0  0  0  0  0  0
   -2.9055    2.5156    0.7906 C   0  0  0  0  0  0  0  0  0  0  0  0
   -3.1549    1.2931    0.1652 C   0  0  0  0  0  0  0  0  0  0  0  0
   -1.3678    4.3136    1.7066 C   0  0  0  0  0  0  0  0  0  0  0  0
   -0.0497    4.6605    1.8073 F   0  0  0  0  0  0  0  0  0  0  0  0
   -2.0088    5.2936    1.0032 F   0  0  0  0  0  0  0  0  0  0  0  0
   -1.8992    4.2797    2.9642 F   0  0  0  0  0  0  0  0  0  0  0  0
    0.0704    0.0397   -0.4507 N   0  0  0  0  0  0  0  0  0  0  0  0
    1.4743    0.0235   -0.3257 C   0  0  0  0  0  0  0  0  0  0  0  0
    2.2149    1.2142   -0.4539 C   0  0  0  0  0  0  0  0  0  0  0  0
    3.6042    1.1858   -0.3288 C   0  0  0  0  0  0  0  0  0  0  0  0
    4.2718    0.0017   -0.0689 C   0  0  0  0  0  0  0  0  0  0  0  0
    5.6291    0.2516    0.0119 N   0  0  0  0  0  0  0  0  0  0  0  0
    5.8345    1.5974   -0.0837 C   0  0  0  0  0  0  0  0  0  0  0  0
    6.9081    2.0998    0.2189 O   0  0  0  0  0  0  0  0  0  0  0  0
    4.5519    2.3542   -0.4028 C   0  0  0  0  0  0  0  0  0  0  0  0
    3.5712   -1.1966    0.0927 C   0  0  0  0  0  0  0  0  0  0  0  0
    4.2997   -2.4850    0.3848 C   0  0  0  0  0  0  0  0  0  0  0  0
    2.1711   -1.1722   -0.0401 C   0  0  0  0  0  0  0  0  0  0  0  0
   -0.9983   -2.3280   -2.6090 H   0  0  0  0  0  0  0  0  0  0  0  0
    0.6880   -2.0950   -2.1132 H   0  0  0  0  0  0  0  0  0  0  0  0
   -0.4233   -3.0643   -1.1027 H   0  0  0  0  0  0  0  0  0  0  0  0
   -3.7381    3.1364    1.1079 H   0  0  0  0  0  0  0  0  0  0  0  0
   -4.1590    0.9240   -0.0233 H   0  0  0  0  0  0  0  0  0  0  0  0
    1.7204    2.1600   -0.6564 H   0  0  0  0  0  0  0  0  0  0  0  0
    6.2527   -0.2860    0.6029 H   0  0  0  0  0  0  0  0  0  0  0  0
    4.5904    2.7886   -1.4041 H   0  0  0  0  0  0  0  0  0  0  0  0
    4.3386    3.1089    0.3580 H   0  0  0  0  0  0  0  0  0  0  0  0
    3.6335   -3.3457    0.2733 H   0  0  0  0  0  0  0  0  0  0  0  0
    5.1383   -2.6097   -0.3071 H   0  0  0  0  0  0  0  0  0  0  0  0
    4.6843   -2.4721    1.4090 H   0  0  0  0  0  0  0  0  0  0  0  0
    1.6227   -2.0951    0.1139 H   0  0  0  0  0  0  0  0  0  0  0  0
  1  2  1  0
  1 26  1  0
  1 27  1  0
  1 28  1  0
  2  3  2  0
  2 14  1  0
  3  4  1  0
  4  5  2  0
  4  9  1  0
  5  6  1  0
  5 14  1  0
  6  7  2  0
  7  8  1  0
  7 10  1  0
  8  9  2  0
  8 29  1  0
  9 30  1  0
 10 11  1  0
 10 12  1  0
 10 13  1  0
 14 15  1  0
 15 16  2  0
 15 25  1  0
 16 17  1  0
 16 31  1  0
 17 18  2  0
 17 22  1  0
 18 19  1  0
 18 23  1  0
 19 20  1  0
 19 32  1  0
 20 21  2  0
 20 22  1  0
 22 33  1  0
 22 34  1  0
 23 24  1  0
 23 25  2  0
 24 35  1  0
 24 36  1  0
 24 37  1  0
 25 38  1  0
M  END
>  <group_name>  (1) 
JNS

>  <molecule_index>  (1) 
01658

>  <conformer_index>  (1) 
03

>  <method>  (1) 
openff-1.3.0

>  <basis>  (1) 
smirnoff

>  <program>  (1) 
openmm

>  <initial_energy>  (1) 
82.95666015648835 kilocalorie / mole

>  <final_energy>  (1) 
71.94599653422075 kilocalorie / mole

$$$$
