JNS-01448-00
     RDKit          3D

 43 47  0  0  0  0  0  0  0  0999 V2000
    3.2719    3.0049    0.9390 F   0  0  0  0  0  0  0  0  0  0  0  0
    2.4423    2.3204    1.7803 C   0  0  0  0  0  0  0  0  0  0  0  0
    2.3298    3.0423    2.9345 F   0  0  0  0  0  0  0  0  0  0  0  0
    3.0430    1.1409    2.1142 F   0  0  0  0  0  0  0  0  0  0  0  0
    1.0737    2.1138    1.1173 C   0  0  0  0  0  0  0  0  0  0  0  0
    0.1026    3.0040    1.2371 N   0  0  0  0  0  0  0  0  0  0  0  0
   -1.0025    2.4364    0.6290 C   0  0  0  0  0  0  0  0  0  0  0  0
   -0.7160    1.1853    0.1257 C   0  0  0  0  0  0  0  0  0  0  0  0
   -1.6166    0.4115   -0.5130 N   0  0  0  0  0  0  0  0  0  0  0  0
   -2.8790    0.9036   -0.6599 C   0  0  0  0  0  0  0  0  0  0  0  0
   -3.2198    2.1826   -0.1568 C   0  0  0  0  0  0  0  0  0  0  0  0
   -2.2722    2.9687    0.4997 C   0  0  0  0  0  0  0  0  0  0  0  0
   -3.9632    0.0795   -1.3661 C   0  0  0  0  0  0  0  0  0  0  0  0
   -4.3769    0.7326   -2.4916 F   0  0  0  0  0  0  0  0  0  0  0  0
   -3.5341   -1.1675   -1.7247 F   0  0  0  0  0  0  0  0  0  0  0  0
   -5.0416   -0.0672   -0.5408 F   0  0  0  0  0  0  0  0  0  0  0  0
    0.6257    0.9819    0.3973 N   0  0  0  0  0  0  0  0  0  0  0  0
    1.3885   -0.1014   -0.0872 C   0  0  0  0  0  0  0  0  0  0  0  0
    0.8450   -1.4017   -0.1101 C   0  0  0  0  0  0  0  0  0  0  0  0
    1.6117   -2.4644   -0.5921 C   0  0  0  0  0  0  0  0  0  0  0  0
    2.8847   -2.2667   -1.0559 C   0  0  0  0  0  0  0  0  0  0  0  0
    3.3501   -3.5218   -1.4111 N   0  0  0  0  0  0  0  0  0  0  0  0
    2.4098   -4.4906   -1.2109 N   0  0  0  0  0  0  0  0  0  0  0  0
    1.3545   -3.8813   -0.7218 C   0  0  0  0  0  0  0  0  0  0  0  0
    3.4578   -0.9903   -1.0808 C   0  0  0  0  0  0  0  0  0  0  0  0
    2.6940    0.0851   -0.5945 C   0  0  0  0  0  0  0  0  0  0  0  0
    4.8108   -0.7714   -1.6005 C   0  0  0  0  0  0  0  0  0  0  0  0
    5.7265    0.0192   -0.8874 C   0  0  0  0  0  0  0  0  0  0  0  0
    7.0203    0.2292   -1.3784 C   0  0  0  0  0  0  0  0  0  0  0  0
    7.4108   -0.3461   -2.5914 C   0  0  0  0  0  0  0  0  0  0  0  0
    6.5051   -1.1281   -3.3146 C   0  0  0  0  0  0  0  0  0  0  0  0
    5.2117   -1.3378   -2.8221 C   0  0  0  0  0  0  0  0  0  0  0  0
   -4.2321    2.5550   -0.2843 H   0  0  0  0  0  0  0  0  0  0  0  0
   -2.5005    3.9538    0.8981 H   0  0  0  0  0  0  0  0  0  0  0  0
   -0.1591   -1.5944    0.2571 H   0  0  0  0  0  0  0  0  0  0  0  0
    4.3011   -3.6918   -1.7414 H   0  0  0  0  0  0  0  0  0  0  0  0
    0.4244   -4.3718   -0.4500 H   0  0  0  0  0  0  0  0  0  0  0  0
    3.1255    1.0773   -0.6561 H   0  0  0  0  0  0  0  0  0  0  0  0
    5.4389    0.4632    0.0615 H   0  0  0  0  0  0  0  0  0  0  0  0
    7.7216    0.8388   -0.8152 H   0  0  0  0  0  0  0  0  0  0  0  0
    8.4146   -0.1813   -2.9732 H   0  0  0  0  0  0  0  0  0  0  0  0
    6.8036   -1.5657   -4.2633 H   0  0  0  0  0  0  0  0  0  0  0  0
    4.5089   -1.9239   -3.4074 H   0  0  0  0  0  0  0  0  0  0  0  0
  1  2  1  0
  2  3  1  0
  2  4  1  0
  2  5  1  0
  5  6  2  0
  5 17  1  0
  6  7  1  0
  7  8  2  0
  7 12  1  0
  8  9  1  0
  8 17  1  0
  9 10  2  0
 10 11  1  0
 10 13  1  0
 11 12  2  0
 11 33  1  0
 12 34  1  0
 13 14  1  0
 13 15  1  0
 13 16  1  0
 17 18  1  0
 18 19  2  0
 18 26  1  0
 19 20  1  0
 19 35  1  0
 20 21  2  0
 20 24  1  0
 21 22  1  0
 21 25  1  0
 22 23  1  0
 22 36  1  0
 23 24  2  0
 24 37  1  0
 25 26  2  0
 25 27  1  0
 26 38  1  0
 27 28  2  0
 27 32  1  0
 28 29  1  0
 28 39  1  0
 29 30  2  0
 29 40  1  0
 30 31  1  0
 30 41  1  0
 31 32  2  0
 31 42  1  0
 32 43  1  0
M  END
>  <group_name>  (1) 
JNS

>  <molecule_index>  (1) 
01448

>  <conformer_index>  (1) 
00

>  <method>  (1) 
openff-1.3.0

>  <basis>  (1) 
smirnoff

>  <program>  (1) 
openmm

>  <initial_energy>  (1) 
219.1986125221926 kilocalorie / mole

>  <final_energy>  (1) 
206.26720318712262 kilocalorie / mole

$$$$
