JNS-02536-00
     RDKit          3D

 44 47  0  0  0  0  0  0  0  0999 V2000
   -5.2606   -4.9889    0.5069 C   0  0  0  0  0  0  0  0  0  0  0  0
   -4.5027   -3.7552    0.0909 C   0  0  0  0  0  0  0  0  0  0  0  0
   -5.1613   -2.5288   -0.0512 C   0  0  0  0  0  0  0  0  0  0  0  0
   -4.4519   -1.3786   -0.4170 C   0  0  0  0  0  0  0  0  0  0  0  0
   -3.0669   -1.4220   -0.6456 C   0  0  0  0  0  0  0  0  0  0  0  0
   -2.4119   -2.6574   -0.4864 C   0  0  0  0  0  0  0  0  0  0  0  0
   -3.1207   -3.8077   -0.1214 C   0  0  0  0  0  0  0  0  0  0  0  0
   -2.3634   -0.2521   -0.9967 N   0  0  0  0  0  0  0  0  0  0  0  0
   -1.1710   -0.2855   -1.7306 C   0  0  0  0  0  0  0  0  0  0  0  0
   -0.8352   -1.3310   -2.9921 S   0  0  0  0  0  0  0  0  0  0  0  0
   -0.3146    0.7408   -1.3962 N   0  0  0  0  0  0  0  0  0  0  0  0
   -0.9419    1.4735   -0.4341 C   0  0  0  0  0  0  0  0  0  0  0  0
   -0.5009    2.5269    0.0229 O   0  0  0  0  0  0  0  0  0  0  0  0
   -2.3476    0.9431   -0.1279 C   0  0  0  0  0  0  0  0  0  0  0  0
   -3.4390    1.9998   -0.2904 C   0  0  0  0  0  0  0  0  0  0  0  0
   -3.5163    2.0791    1.2374 C   0  0  0  0  0  0  0  0  0  0  0  0
   -2.6458    0.8260    1.3690 C   0  0  0  0  0  0  0  0  0  0  0  0
    1.0153    0.4338   -1.2287 C   0  0  0  0  0  0  0  0  0  0  0  0
    1.4316    0.0507   -0.0123 N   0  0  0  0  0  0  0  0  0  0  0  0
    2.7423   -0.2739    0.1792 C   0  0  0  0  0  0  0  0  0  0  0  0
    3.6632   -0.2199   -0.9032 C   0  0  0  0  0  0  0  0  0  0  0  0
    3.2163    0.1656   -2.1668 C   0  0  0  0  0  0  0  0  0  0  0  0
    1.8764    0.4918   -2.3211 C   0  0  0  0  0  0  0  0  0  0  0  0
    5.0429   -0.5529   -0.7493 C   0  0  0  0  0  0  0  0  0  0  0  0
    6.1726   -0.8201   -0.6491 N   0  0  0  0  0  0  0  0  0  0  0  0
    3.2012   -0.7053    1.5859 C   0  0  0  0  0  0  0  0  0  0  0  0
    2.1757   -0.7020    2.4906 F   0  0  0  0  0  0  0  0  0  0  0  0
    4.1587    0.1441    2.0621 F   0  0  0  0  0  0  0  0  0  0  0  0
    3.7006   -1.9762    1.5578 F   0  0  0  0  0  0  0  0  0  0  0  0
   -4.6163   -5.6585    1.0848 H   0  0  0  0  0  0  0  0  0  0  0  0
   -6.1204   -4.7207    1.1282 H   0  0  0  0  0  0  0  0  0  0  0  0
   -5.6181   -5.5220   -0.3791 H   0  0  0  0  0  0  0  0  0  0  0  0
   -6.2327   -2.4656    0.1162 H   0  0  0  0  0  0  0  0  0  0  0  0
   -4.9974   -0.4504   -0.5332 H   0  0  0  0  0  0  0  0  0  0  0  0
   -1.3389   -2.7416   -0.6285 H   0  0  0  0  0  0  0  0  0  0  0  0
   -2.5868   -4.7465   -0.0046 H   0  0  0  0  0  0  0  0  0  0  0  0
   -3.1211    2.9237   -0.7855 H   0  0  0  0  0  0  0  0  0  0  0  0
   -4.3592    1.6330   -0.7517 H   0  0  0  0  0  0  0  0  0  0  0  0
   -4.5264    1.9728    1.6460 H   0  0  0  0  0  0  0  0  0  0  0  0
   -3.0411    2.9775    1.6469 H   0  0  0  0  0  0  0  0  0  0  0  0
   -3.2200   -0.0592    1.6577 H   0  0  0  0  0  0  0  0  0  0  0  0
   -1.7734    0.9318    2.0232 H   0  0  0  0  0  0  0  0  0  0  0  0
    3.8981    0.2079   -3.0146 H   0  0  0  0  0  0  0  0  0  0  0  0
    1.4801    0.7881   -3.2868 H   0  0  0  0  0  0  0  0  0  0  0  0
  1  2  1  0
  1 30  1  0
  1 31  1  0
  1 32  1  0
  2  3  2  0
  2  7  1  0
  3  4  1  0
  3 33  1  0
  4  5  2  0
  4 34  1  0
  5  6  1  0
  5  8  1  0
  6  7  2  0
  6 35  1  0
  7 36  1  0
  8  9  1  0
  8 14  1  0
  9 10  2  0
  9 11  1  0
 11 12  1  0
 11 18  1  0
 12 13  2  0
 12 14  1  0
 14 15  1  0
 14 17  1  0
 15 16  1  0
 15 37  1  0
 15 38  1  0
 16 17  1  0
 16 39  1  0
 16 40  1  0
 17 41  1  0
 17 42  1  0
 18 19  2  0
 18 23  1  0
 19 20  1  0
 20 21  2  0
 20 26  1  0
 21 22  1  0
 21 24  1  0
 22 23  2  0
 22 43  1  0
 23 44  1  0
 24 25  3  0
 26 27  1  0
 26 28  1  0
 26 29  1  0
M  END
>  <group_name>  (1) 
JNS

>  <molecule_index>  (1) 
02536

>  <conformer_index>  (1) 
00

>  <method>  (1) 
openff-1.3.0

>  <basis>  (1) 
smirnoff

>  <program>  (1) 
openmm

>  <initial_energy>  (1) 
74.04173915029065 kilocalorie / mole

>  <final_energy>  (1) 
59.17190669327608 kilocalorie / mole

$$$$
