JNS-02239-01
     RDKit          3D

 53 57  0  0  0  0  0  0  0  0999 V2000
   -3.7327   -0.3292    0.1993 C   0  0  0  0  0  0  0  0  0  0  0  0
   -2.4137    0.1965   -0.1465 N   0  0  0  0  0  0  0  0  0  0  0  0
   -1.2259   -0.2419    0.4119 C   0  0  0  0  0  0  0  0  0  0  0  0
   -0.2310    0.4769   -0.1898 C   0  0  0  0  0  0  0  0  0  0  0  0
   -0.9088    1.3231   -1.1494 C   0  0  0  0  0  0  0  0  0  0  0  0
   -2.2046    1.1435   -1.0941 N   0  0  0  0  0  0  0  0  0  0  0  0
    1.2018    0.3291    0.0626 C   0  0  0  0  0  0  0  0  0  0  0  0
    2.1204    1.3730   -0.0640 C   0  0  0  0  0  0  0  0  0  0  0  0
    1.7132    2.8104   -0.4013 C   0  0  0  0  0  0  0  0  0  0  0  0
    2.7745    3.8233    0.0527 C   0  0  1  0  0  0  0  0  0  0  0  0
    2.8643    3.8614    1.6030 C   0  0  0  0  0  0  0  0  0  0  0  0
    4.3094    3.7660    2.1152 C   0  0  0  0  0  0  0  0  0  0  0  0
    5.0871    2.5869    1.4843 C   0  0  0  0  0  0  0  0  0  0  0  0
    4.5514    2.1417    0.1036 C   0  0  2  0  0  0  0  0  0  0  0  0
    4.0199    3.3422   -0.5464 N   0  0  0  0  0  0  0  0  0  0  0  0
    4.6613    4.0263   -1.5712 C   0  0  0  0  0  0  0  0  0  0  0  0
    4.2802    5.1541   -1.8723 O   0  0  0  0  0  0  0  0  0  0  0  0
    5.8235    3.4947   -2.2941 C   0  0  0  0  0  0  0  0  0  0  0  0
    6.9816    4.2656   -2.4256 C   0  0  0  0  0  0  0  0  0  0  0  0
    8.0797    3.7702   -3.1252 C   0  0  0  0  0  0  0  0  0  0  0  0
    8.0841    2.5566   -3.7031 N   0  0  0  0  0  0  0  0  0  0  0  0
    6.9556    1.7918   -3.6248 C   0  0  0  0  0  0  0  0  0  0  0  0
    5.8046    2.2458   -2.9331 C   0  0  0  0  0  0  0  0  0  0  0  0
    4.6727    1.4915   -2.9044 F   0  0  0  0  0  0  0  0  0  0  0  0
    6.9164    0.4127   -4.2914 C   0  0  0  0  0  0  0  0  0  0  0  0
    8.0988    0.0914   -4.8960 F   0  0  0  0  0  0  0  0  0  0  0  0
    6.6598   -0.5511   -3.3585 F   0  0  0  0  0  0  0  0  0  0  0  0
    5.9420    0.3761   -5.2471 F   0  0  0  0  0  0  0  0  0  0  0  0
    3.4619    1.0765    0.2103 C   0  0  0  0  0  0  0  0  0  0  0  0
    3.8411   -0.1559    0.5459 N   0  0  0  0  0  0  0  0  0  0  0  0
    2.8973   -1.0935    0.6426 C   0  0  0  0  0  0  0  0  0  0  0  0
    3.3235   -2.4648    1.0620 C   0  0  0  0  0  0  0  0  0  0  0  0
    1.5970   -0.8846    0.4441 N   0  0  0  0  0  0  0  0  0  0  0  0
   -4.0267    0.0224    1.1919 H   0  0  0  0  0  0  0  0  0  0  0  0
   -4.4722    0.0140   -0.5300 H   0  0  0  0  0  0  0  0  0  0  0  0
   -3.7156   -1.4224    0.1870 H   0  0  0  0  0  0  0  0  0  0  0  0
   -1.1007   -1.0102    1.1702 H   0  0  0  0  0  0  0  0  0  0  0  0
   -0.4249    2.0014   -1.8441 H   0  0  0  0  0  0  0  0  0  0  0  0
    1.5895    2.9017   -1.4852 H   0  0  0  0  0  0  0  0  0  0  0  0
    0.7615    3.0660    0.0753 H   0  0  0  0  0  0  0  0  0  0  0  0
    2.5102    4.8234   -0.3071 H   0  0  0  0  0  0  0  0  0  0  0  0
    2.4018    4.7837    1.9678 H   0  0  0  0  0  0  0  0  0  0  0  0
    2.2970    3.0345    2.0425 H   0  0  0  0  0  0  0  0  0  0  0  0
    4.8219    4.6993    1.8578 H   0  0  0  0  0  0  0  0  0  0  0  0
    4.3194    3.6803    3.2065 H   0  0  0  0  0  0  0  0  0  0  0  0
    6.1284    2.9038    1.3696 H   0  0  0  0  0  0  0  0  0  0  0  0
    5.0928    1.7299    2.1660 H   0  0  0  0  0  0  0  0  0  0  0  0
    5.3748    1.6880   -0.4516 H   0  0  0  0  0  0  0  0  0  0  0  0
    7.0310    5.2587   -1.9875 H   0  0  0  0  0  0  0  0  0  0  0  0
    8.9698    4.3873   -3.2068 H   0  0  0  0  0  0  0  0  0  0  0  0
    2.5180   -2.9595    1.6112 H   0  0  0  0  0  0  0  0  0  0  0  0
    3.5675   -3.0562    0.1763 H   0  0  0  0  0  0  0  0  0  0  0  0
    4.2045   -2.4060    1.7066 H   0  0  0  0  0  0  0  0  0  0  0  0
  1  2  1  0
  1 34  1  0
  1 35  1  0
  1 36  1  0
  2  3  1  0
  2  6  1  0
  3  4  2  0
  3 37  1  0
  4  5  1  0
  4  7  1  0
  5  6  2  0
  5 38  1  0
  7  8  1  0
  7 33  2  0
  8  9  1  0
  8 29  2  0
  9 10  1  0
  9 39  1  0
  9 40  1  0
 10 11  1  0
 10 15  1  0
 10 41  1  6
 11 12  1  0
 11 42  1  0
 11 43  1  0
 12 13  1  0
 12 44  1  0
 12 45  1  0
 13 14  1  0
 13 46  1  0
 13 47  1  0
 14 15  1  0
 14 29  1  0
 14 48  1  6
 15 16  1  0
 16 17  2  0
 16 18  1  0
 18 19  2  0
 18 23  1  0
 19 20  1  0
 19 49  1  0
 20 21  2  0
 20 50  1  0
 21 22  1  0
 22 23  2  0
 22 25  1  0
 23 24  1  0
 25 26  1  0
 25 27  1  0
 25 28  1  0
 29 30  1  0
 30 31  2  0
 31 32  1  0
 31 33  1  0
 32 51  1  0
 32 52  1  0
 32 53  1  0
M  END
>  <group_name>  (1) 
JNS

>  <molecule_index>  (1) 
02239

>  <conformer_index>  (1) 
01

>  <method>  (1) 
openff-1.3.0

>  <basis>  (1) 
smirnoff

>  <program>  (1) 
openmm

>  <initial_energy>  (1) 
28.99895038295361 kilocalorie / mole

>  <final_energy>  (1) 
17.151580789711968 kilocalorie / mole

$$$$
