JNS-01242-05
     RDKit          3D

 41 45  0  0  0  0  0  0  0  0999 V2000
   -1.7317    5.1005    0.0542 F   0  0  0  0  0  0  0  0  0  0  0  0
   -1.2599    4.2943    1.0506 C   0  0  0  0  0  0  0  0  0  0  0  0
    0.0338    4.6484    1.3109 F   0  0  0  0  0  0  0  0  0  0  0  0
   -1.9991    4.5349    2.1738 F   0  0  0  0  0  0  0  0  0  0  0  0
   -1.4086    2.8240    0.6389 C   0  0  0  0  0  0  0  0  0  0  0  0
   -2.7081    2.3228    0.3805 C   0  0  0  0  0  0  0  0  0  0  0  0
   -2.9011    0.9931    0.0032 C   0  0  0  0  0  0  0  0  0  0  0  0
   -1.7701    0.2052   -0.1013 C   0  0  0  0  0  0  0  0  0  0  0  0
   -1.6880   -1.1308   -0.4515 N   0  0  0  0  0  0  0  0  0  0  0  0
   -0.4076   -1.4243   -0.3978 C   0  0  0  0  0  0  0  0  0  0  0  0
    0.1131   -2.8382   -0.6062 C   0  0  2  0  0  0  0  0  0  0  0  0
   -0.0499   -3.3085   -2.0470 C   0  0  0  0  0  0  0  0  0  0  0  0
   -1.4593   -3.8760   -2.0763 C   0  0  0  0  0  0  0  0  0  0  0  0
   -1.6768   -4.4169   -0.7660 O   0  0  0  0  0  0  0  0  0  0  0  0
   -0.7193   -3.8690    0.1557 C   0  0  0  0  0  0  0  0  0  0  0  0
    0.3636   -0.2995   -0.0552 N   0  0  0  0  0  0  0  0  0  0  0  0
   -0.5245    0.7353    0.1664 C   0  0  0  0  0  0  0  0  0  0  0  0
   -0.3155    2.0168    0.5264 N   0  0  0  0  0  0  0  0  0  0  0  0
    1.7665   -0.1882   -0.0216 C   0  0  0  0  0  0  0  0  0  0  0  0
    2.5775   -0.8103   -0.9982 C   0  0  0  0  0  0  0  0  0  0  0  0
    3.9761   -0.6930   -0.9580 C   0  0  0  0  0  0  0  0  0  0  0  0
    4.5620    0.0550    0.0572 C   0  0  0  0  0  0  0  0  0  0  0  0
    5.8936    0.3092    0.2979 N   0  0  0  0  0  0  0  0  0  0  0  0
    5.8611    1.0647    1.3583 C   0  0  0  0  0  0  0  0  0  0  0  0
    7.0435    1.4840    1.8438 O   0  0  0  0  0  0  0  0  0  0  0  0
    4.6132    1.3418    1.8630 O   0  0  0  0  0  0  0  0  0  0  0  0
    3.7875    0.6815    1.0052 C   0  0  0  0  0  0  0  0  0  0  0  0
    2.3966    0.5791    0.9796 C   0  0  0  0  0  0  0  0  0  0  0  0
   -3.5644    2.9838    0.4773 H   0  0  0  0  0  0  0  0  0  0  0  0
   -3.8833    0.5766   -0.2024 H   0  0  0  0  0  0  0  0  0  0  0  0
    1.1539   -2.9028   -0.2824 H   0  0  0  0  0  0  0  0  0  0  0  0
    0.0840   -2.5036   -2.7766 H   0  0  0  0  0  0  0  0  0  0  0  0
    0.6637   -4.1105   -2.2618 H   0  0  0  0  0  0  0  0  0  0  0  0
   -1.5543   -4.6486   -2.8457 H   0  0  0  0  0  0  0  0  0  0  0  0
   -2.1913   -3.0868   -2.2774 H   0  0  0  0  0  0  0  0  0  0  0  0
   -1.2151   -3.4202    1.0230 H   0  0  0  0  0  0  0  0  0  0  0  0
   -0.0733   -4.6775    0.5125 H   0  0  0  0  0  0  0  0  0  0  0  0
    2.1306   -1.3672   -1.8144 H   0  0  0  0  0  0  0  0  0  0  0  0
    4.6090   -1.1629   -1.7039 H   0  0  0  0  0  0  0  0  0  0  0  0
    7.6850    1.1000    1.2310 H   0  0  0  0  0  0  0  0  0  0  0  0
    1.8214    1.0922    1.7445 H   0  0  0  0  0  0  0  0  0  0  0  0
  1  2  1  0
  2  3  1  0
  2  4  1  0
  2  5  1  0
  5  6  2  0
  5 18  1  0
  6  7  1  0
  6 29  1  0
  7  8  2  0
  7 30  1  0
  8  9  1  0
  8 17  1  0
  9 10  2  0
 10 11  1  0
 10 16  1  0
 11 12  1  0
 11 15  1  0
 11 31  1  1
 12 13  1  0
 12 32  1  0
 12 33  1  0
 13 14  1  0
 13 34  1  0
 13 35  1  0
 14 15  1  0
 15 36  1  0
 15 37  1  0
 16 17  1  0
 16 19  1  0
 17 18  2  0
 19 20  2  0
 19 28  1  0
 20 21  1  0
 20 38  1  0
 21 22  2  0
 21 39  1  0
 22 23  1  0
 22 27  1  0
 23 24  2  0
 24 25  1  0
 24 26  1  0
 25 40  1  0
 26 27  1  0
 27 28  2  0
 28 41  1  0
M  END
>  <group_name>  (1) 
JNS

>  <molecule_index>  (1) 
01242

>  <conformer_index>  (1) 
05

>  <method>  (1) 
openff-1.3.0

>  <basis>  (1) 
smirnoff

>  <program>  (1) 
openmm

>  <initial_energy>  (1) 
100.14616829678695 kilocalorie / mole

>  <final_energy>  (1) 
81.96990609578054 kilocalorie / mole

$$$$
