JNS-01242-02
     RDKit          3D

 41 45  0  0  0  0  0  0  0  0999 V2000
   -1.3554    5.5408   -0.7935 F   0  0  0  0  0  0  0  0  0  0  0  0
   -1.3430    4.7384    0.3115 C   0  0  0  0  0  0  0  0  0  0  0  0
   -2.3712    5.1227    1.1246 F   0  0  0  0  0  0  0  0  0  0  0  0
   -0.1723    4.9502    0.9836 F   0  0  0  0  0  0  0  0  0  0  0  0
   -1.5358    3.2760   -0.1100 C   0  0  0  0  0  0  0  0  0  0  0  0
   -2.7461    2.9101   -0.7488 C   0  0  0  0  0  0  0  0  0  0  0  0
   -2.9767    1.5920   -1.1464 C   0  0  0  0  0  0  0  0  0  0  0  0
   -1.9723    0.6780   -0.8862 C   0  0  0  0  0  0  0  0  0  0  0  0
   -1.9506   -0.6775   -1.1637 N   0  0  0  0  0  0  0  0  0  0  0  0
   -0.7925   -1.1067   -0.7148 C   0  0  0  0  0  0  0  0  0  0  0  0
   -0.5344   -2.6007   -0.7788 C   0  0  2  0  0  0  0  0  0  0  0  0
    0.2573   -3.2569    0.3433 C   0  0  0  0  0  0  0  0  0  0  0  0
    0.6598   -4.5719   -0.3018 C   0  0  0  0  0  0  0  0  0  0  0  0
    0.8223   -4.2923   -1.7028 O   0  0  0  0  0  0  0  0  0  0  0  0
    0.1587   -3.0645   -2.0484 C   0  0  0  0  0  0  0  0  0  0  0  0
   -0.0251   -0.0504   -0.1801 N   0  0  0  0  0  0  0  0  0  0  0  0
   -0.8114    1.0816   -0.2613 C   0  0  0  0  0  0  0  0  0  0  0  0
   -0.5671    2.3474    0.1311 N   0  0  0  0  0  0  0  0  0  0  0  0
    1.2894   -0.0631    0.3187 C   0  0  0  0  0  0  0  0  0  0  0  0
    1.5863    0.5879    1.5363 C   0  0  0  0  0  0  0  0  0  0  0  0
    2.8901    0.5917    2.0559 C   0  0  0  0  0  0  0  0  0  0  0  0
    3.8992   -0.0506    1.3472 C   0  0  0  0  0  0  0  0  0  0  0  0
    5.2343   -0.1830    1.6496 N   0  0  0  0  0  0  0  0  0  0  0  0
    5.7125   -0.8515    0.6377 C   0  0  0  0  0  0  0  0  0  0  0  0
    7.0141   -1.2033    0.5261 O   0  0  0  0  0  0  0  0  0  0  0  0
    4.7954   -1.1887   -0.3308 O   0  0  0  0  0  0  0  0  0  0  0  0
    3.6333   -0.6655    0.1478 C   0  0  0  0  0  0  0  0  0  0  0  0
    2.3449   -0.6748   -0.3866 C   0  0  0  0  0  0  0  0  0  0  0  0
   -3.5040    3.6665   -0.9302 H   0  0  0  0  0  0  0  0  0  0  0  0
   -3.8942    1.2783   -1.6364 H   0  0  0  0  0  0  0  0  0  0  0  0
   -1.5193   -3.0806   -0.7749 H   0  0  0  0  0  0  0  0  0  0  0  0
    1.1569   -2.7020    0.6079 H   0  0  0  0  0  0  0  0  0  0  0  0
   -0.3448   -3.4044    1.2453 H   0  0  0  0  0  0  0  0  0  0  0  0
   -0.1274   -5.3208   -0.1661 H   0  0  0  0  0  0  0  0  0  0  0  0
    1.5878   -4.9527    0.1368 H   0  0  0  0  0  0  0  0  0  0  0  0
   -0.5720   -3.2207   -2.8488 H   0  0  0  0  0  0  0  0  0  0  0  0
    0.8895   -2.3351   -2.4016 H   0  0  0  0  0  0  0  0  0  0  0  0
    0.7992    1.0951    2.0878 H   0  0  0  0  0  0  0  0  0  0  0  0
    3.1276    1.0864    2.9923 H   0  0  0  0  0  0  0  0  0  0  0  0
    7.0960   -1.6757   -0.3111 H   0  0  0  0  0  0  0  0  0  0  0  0
    2.1948   -1.1420   -1.3494 H   0  0  0  0  0  0  0  0  0  0  0  0
  1  2  1  0
  2  3  1  0
  2  4  1  0
  2  5  1  0
  5  6  2  0
  5 18  1  0
  6  7  1  0
  6 29  1  0
  7  8  2  0
  7 30  1  0
  8  9  1  0
  8 17  1  0
  9 10  2  0
 10 11  1  0
 10 16  1  0
 11 12  1  0
 11 15  1  0
 11 31  1  6
 12 13  1  0
 12 32  1  0
 12 33  1  0
 13 14  1  0
 13 34  1  0
 13 35  1  0
 14 15  1  0
 15 36  1  0
 15 37  1  0
 16 17  1  0
 16 19  1  0
 17 18  2  0
 19 20  2  0
 19 28  1  0
 20 21  1  0
 20 38  1  0
 21 22  2  0
 21 39  1  0
 22 23  1  0
 22 27  1  0
 23 24  2  0
 24 25  1  0
 24 26  1  0
 25 40  1  0
 26 27  1  0
 27 28  2  0
 28 41  1  0
M  END
>  <group_name>  (1) 
JNS

>  <molecule_index>  (1) 
01242

>  <conformer_index>  (1) 
02

>  <method>  (1) 
openff-1.3.0

>  <basis>  (1) 
smirnoff

>  <program>  (1) 
openmm

>  <initial_energy>  (1) 
99.28080417702084 kilocalorie / mole

>  <final_energy>  (1) 
87.65278346905315 kilocalorie / mole

$$$$
