JNS-01948-01
     RDKit          3D

 33 34  0  0  0  0  0  0  0  0999 V2000
   -0.5276    0.6393    1.0702 C   0  0  0  0  0  0  0  0  0  0  0  0
    0.1196   -0.2239    0.1170 O   0  0  0  0  0  0  0  0  0  0  0  0
    1.4375    0.0623   -0.1640 C   0  0  0  0  0  0  0  0  0  0  0  0
    2.0693    1.0942    0.4282 N   0  0  0  0  0  0  0  0  0  0  0  0
    3.3681    1.3392    0.1131 C   0  0  0  0  0  0  0  0  0  0  0  0
    4.0447    0.5251   -0.8144 C   0  0  0  0  0  0  0  0  0  0  0  0
    3.4088   -0.5510   -1.4208 C   0  0  0  0  0  0  0  0  0  0  0  0
    4.1134   -1.4259   -2.4298 C   0  0  0  0  0  0  0  0  0  0  0  0
    4.5274   -2.7689   -1.8059 C   0  0  2  0  0  0  0  0  0  0  0  0
    5.5583   -2.6101   -0.6745 C   0  0  0  0  0  0  0  0  0  0  0  0
    6.5569   -3.7277   -0.9128 C   0  0  0  0  0  0  0  0  0  0  0  0
    6.5965   -3.7446   -2.3704 N   0  0  0  0  0  0  0  0  0  0  0  0
    5.2087   -3.6887   -2.8257 C   0  0  0  0  0  0  0  0  0  0  0  0
    2.0791   -0.7616   -1.0839 C   0  0  0  0  0  0  0  0  0  0  0  0
    4.1332    2.5050    0.7574 C   0  0  0  0  0  0  0  0  0  0  0  0
    5.2295    2.0274    1.4185 F   0  0  0  0  0  0  0  0  0  0  0  0
    4.5673    3.3643   -0.2119 F   0  0  0  0  0  0  0  0  0  0  0  0
    3.3770    3.2150    1.6474 F   0  0  0  0  0  0  0  0  0  0  0  0
   -1.5636    0.3195    1.2151 H   0  0  0  0  0  0  0  0  0  0  0  0
   -0.5327    1.6743    0.7126 H   0  0  0  0  0  0  0  0  0  0  0  0
   -0.0156    0.5995    2.0373 H   0  0  0  0  0  0  0  0  0  0  0  0
    5.0813    0.7459   -1.0502 H   0  0  0  0  0  0  0  0  0  0  0  0
    4.9943   -0.9098   -2.8255 H   0  0  0  0  0  0  0  0  0  0  0  0
    3.4411   -1.6080   -3.2745 H   0  0  0  0  0  0  0  0  0  0  0  0
    3.6360   -3.2777   -1.4243 H   0  0  0  0  0  0  0  0  0  0  0  0
    5.1000   -2.6827    0.3166 H   0  0  0  0  0  0  0  0  0  0  0  0
    6.0745   -1.6481   -0.7540 H   0  0  0  0  0  0  0  0  0  0  0  0
    7.5347   -3.5173   -0.4668 H   0  0  0  0  0  0  0  0  0  0  0  0
    6.1733   -4.6776   -0.5240 H   0  0  0  0  0  0  0  0  0  0  0  0
    7.0895   -2.9123   -2.6937 H   0  0  0  0  0  0  0  0  0  0  0  0
    4.7587   -4.6864   -2.7784 H   0  0  0  0  0  0  0  0  0  0  0  0
    5.1331   -3.3176   -3.8534 H   0  0  0  0  0  0  0  0  0  0  0  0
    1.5104   -1.5719   -1.5240 H   0  0  0  0  0  0  0  0  0  0  0  0
  1  2  1  0
  1 19  1  0
  1 20  1  0
  1 21  1  0
  2  3  1  0
  3  4  2  0
  3 14  1  0
  4  5  1  0
  5  6  2  0
  5 15  1  0
  6  7  1  0
  6 22  1  0
  7  8  1  0
  7 14  2  0
  8  9  1  0
  8 23  1  0
  8 24  1  0
  9 10  1  0
  9 13  1  0
  9 25  1  1
 10 11  1  0
 10 26  1  0
 10 27  1  0
 11 12  1  0
 11 28  1  0
 11 29  1  0
 12 13  1  0
 12 30  1  0
 13 31  1  0
 13 32  1  0
 14 33  1  0
 15 16  1  0
 15 17  1  0
 15 18  1  0
M  END
>  <group_name>  (1) 
JNS

>  <molecule_index>  (1) 
01948

>  <conformer_index>  (1) 
01

>  <method>  (1) 
openff-1.3.0

>  <basis>  (1) 
smirnoff

>  <program>  (1) 
openmm

>  <initial_energy>  (1) 
51.38717095239223 kilocalorie / mole

>  <final_energy>  (1) 
44.40648602228125 kilocalorie / mole

$$$$
