JNS-02157-00
     RDKit          3D

 42 45  0  0  0  0  0  0  0  0999 V2000
   -2.3598    2.0339   -0.4038 C   0  0  0  0  0  0  0  0  0  0  0  0
   -1.7551    1.2944    0.7965 C   0  0  2  0  0  0  0  0  0  0  0  0
   -2.1422    1.9644    2.1269 C   0  0  0  0  0  0  0  0  0  0  0  0
   -1.4302    3.2887    2.2717 C   0  0  0  0  0  0  0  0  0  0  0  0
   -0.1816    3.4325    1.7609 C   0  0  0  0  0  0  0  0  0  0  0  0
    0.5708    2.3284    1.0631 C   0  0  0  0  0  0  0  0  0  0  0  0
   -0.2920    1.2054    0.6423 N   0  0  0  0  0  0  0  0  0  0  0  0
    0.2610    0.1378   -0.0569 C   0  0  0  0  0  0  0  0  0  0  0  0
   -0.4707   -0.6813   -0.6068 O   0  0  0  0  0  0  0  0  0  0  0  0
    1.7117   -0.0088   -0.2399 C   0  0  0  0  0  0  0  0  0  0  0  0
    2.2747    0.1583   -1.5048 C   0  0  0  0  0  0  0  0  0  0  0  0
    3.6468    0.0198   -1.6837 C   0  0  0  0  0  0  0  0  0  0  0  0
    4.4829   -0.2774   -0.6766 N   0  0  0  0  0  0  0  0  0  0  0  0
    3.9698   -0.4776    0.5714 C   0  0  0  0  0  0  0  0  0  0  0  0
    2.5722   -0.3555    0.8160 C   0  0  0  0  0  0  0  0  0  0  0  0
    1.8894   -0.6723    2.4042 Cl  0  0  0  0  0  0  0  0  0  0  0  0
    4.9251   -0.8381    1.7210 C   0  0  0  0  0  0  0  0  0  0  0  0
    4.8444    0.0932    2.7171 F   0  0  0  0  0  0  0  0  0  0  0  0
    6.2312   -0.8813    1.3208 F   0  0  0  0  0  0  0  0  0  0  0  0
    4.6213   -2.0679    2.2314 F   0  0  0  0  0  0  0  0  0  0  0  0
    0.2454    4.7375    1.8869 N   0  0  0  0  0  0  0  0  0  0  0  0
   -0.7132    5.4041    2.4769 N   0  0  0  0  0  0  0  0  0  0  0  0
   -1.7533    4.5593    2.7383 N   0  0  0  0  0  0  0  0  0  0  0  0
   -2.9313    4.9509    3.4180 C   0  0  0  0  0  0  0  0  0  0  0  0
   -3.0767    6.2517    3.7517 N   0  0  0  0  0  0  0  0  0  0  0  0
   -4.1816    6.6233    4.4026 C   0  0  0  0  0  0  0  0  0  0  0  0
   -5.1674    5.7168    4.7370 C   0  0  0  0  0  0  0  0  0  0  0  0
   -6.2902    6.0999    5.3992 F   0  0  0  0  0  0  0  0  0  0  0  0
   -4.9610    4.4029    4.3678 C   0  0  0  0  0  0  0  0  0  0  0  0
   -3.8603    4.0155    3.7150 N   0  0  0  0  0  0  0  0  0  0  0  0
   -1.9586    3.0486   -0.4859 H   0  0  0  0  0  0  0  0  0  0  0  0
   -2.1335    1.4957   -1.3294 H   0  0  0  0  0  0  0  0  0  0  0  0
   -3.4473    2.0953   -0.3027 H   0  0  0  0  0  0  0  0  0  0  0  0
   -2.1844    0.2862    0.8177 H   0  0  0  0  0  0  0  0  0  0  0  0
   -1.8554    1.3146    2.9594 H   0  0  0  0  0  0  0  0  0  0  0  0
   -3.2271    2.0904    2.1628 H   0  0  0  0  0  0  0  0  0  0  0  0
    1.3419    1.9756    1.7525 H   0  0  0  0  0  0  0  0  0  0  0  0
    1.0705    2.7576    0.1890 H   0  0  0  0  0  0  0  0  0  0  0  0
    1.6471    0.3931   -2.3595 H   0  0  0  0  0  0  0  0  0  0  0  0
    4.0613    0.1598   -2.6779 H   0  0  0  0  0  0  0  0  0  0  0  0
   -4.3068    7.6674    4.6758 H   0  0  0  0  0  0  0  0  0  0  0  0
   -5.7157    3.6615    4.6146 H   0  0  0  0  0  0  0  0  0  0  0  0
  1  2  1  0
  1 31  1  0
  1 32  1  0
  1 33  1  0
  2  3  1  0
  2  7  1  0
  2 34  1  1
  3  4  1  0
  3 35  1  0
  3 36  1  0
  4  5  2  0
  4 23  1  0
  5  6  1  0
  5 21  1  0
  6  7  1  0
  6 37  1  0
  6 38  1  0
  7  8  1  0
  8  9  2  0
  8 10  1  0
 10 11  2  0
 10 15  1  0
 11 12  1  0
 11 39  1  0
 12 13  2  0
 12 40  1  0
 13 14  1  0
 14 15  2  0
 14 17  1  0
 15 16  1  0
 17 18  1  0
 17 19  1  0
 17 20  1  0
 21 22  2  0
 22 23  1  0
 23 24  1  0
 24 25  2  0
 24 30  1  0
 25 26  1  0
 26 27  2  0
 26 41  1  0
 27 28  1  0
 27 29  1  0
 29 30  2  0
 29 42  1  0
M  END
>  <group_name>  (1) 
JNS

>  <molecule_index>  (1) 
02157

>  <conformer_index>  (1) 
00

>  <method>  (1) 
openff-1.3.0

>  <basis>  (1) 
smirnoff

>  <program>  (1) 
openmm

>  <initial_energy>  (1) 
90.39944285119167 kilocalorie / mole

>  <final_energy>  (1) 
78.76516014691404 kilocalorie / mole

$$$$
