JNS-01596-07
     RDKit          3D

 37 41  0  0  0  0  0  0  0  0999 V2000
   -3.5504   -1.2487   -2.3468 F   0  0  0  0  0  0  0  0  0  0  0  0
   -3.4681   -1.0761   -1.0034 C   0  0  0  0  0  0  0  0  0  0  0  0
   -4.4989   -1.1655   -0.0838 N   0  0  0  0  0  0  0  0  0  0  0  0
   -4.0642   -0.9340    1.1843 N   0  0  0  0  0  0  0  0  0  0  0  0
   -2.7831   -0.7037    1.0531 C   0  0  0  0  0  0  0  0  0  0  0  0
   -2.3644   -0.7801   -0.2645 C   0  0  0  0  0  0  0  0  0  0  0  0
   -1.0287   -0.5607   -0.6095 C   0  0  0  0  0  0  0  0  0  0  0  0
   -0.0796   -0.2686    0.3931 C   0  0  0  0  0  0  0  0  0  0  0  0
   -0.5283   -0.1821    1.7302 C   0  0  0  0  0  0  0  0  0  0  0  0
   -1.8736   -0.4005    2.0630 C   0  0  0  0  0  0  0  0  0  0  0  0
    1.2762   -0.0487    0.0740 N   0  0  0  0  0  0  0  0  0  0  0  0
    2.0250   -0.6591   -0.9450 C   0  0  0  0  0  0  0  0  0  0  0  0
    3.2292   -0.1440   -1.0482 N   0  0  0  0  0  0  0  0  0  0  0  0
    3.2927    0.8097   -0.0471 C   0  0  0  0  0  0  0  0  0  0  0  0
    2.1127    0.8774    0.6693 C   0  0  0  0  0  0  0  0  0  0  0  0
    1.9102    1.7282    1.6961 N   0  0  0  0  0  0  0  0  0  0  0  0
    2.9369    2.5563    2.0404 C   0  0  0  0  0  0  0  0  0  0  0  0
    4.1655    2.5181    1.3371 C   0  0  0  0  0  0  0  0  0  0  0  0
    4.3548    1.6339    0.2743 C   0  0  0  0  0  0  0  0  0  0  0  0
    2.7896    3.5457    3.2036 C   0  0  0  0  0  0  0  0  0  0  0  0
    2.9121    4.8243    2.7393 F   0  0  0  0  0  0  0  0  0  0  0  0
    1.5898    3.4369    3.8489 F   0  0  0  0  0  0  0  0  0  0  0  0
    3.7807    3.3326    4.1193 F   0  0  0  0  0  0  0  0  0  0  0  0
    1.5731   -1.8091   -1.8219 C   0  0  0  0  0  0  0  0  0  0  0  0
    2.5554   -2.4807   -2.7840 C   0  0  0  0  0  0  0  0  0  0  0  0
    1.4499   -1.5871   -3.3286 C   0  0  0  0  0  0  0  0  0  0  0  0
   -5.4628   -1.3713   -0.3340 H   0  0  0  0  0  0  0  0  0  0  0  0
   -0.7552   -0.5939   -1.6581 H   0  0  0  0  0  0  0  0  0  0  0  0
    0.1688    0.0464    2.5305 H   0  0  0  0  0  0  0  0  0  0  0  0
   -2.2079   -0.3335    3.0938 H   0  0  0  0  0  0  0  0  0  0  0  0
    4.9697    3.1869    1.6293 H   0  0  0  0  0  0  0  0  0  0  0  0
    5.2833    1.5797   -0.2868 H   0  0  0  0  0  0  0  0  0  0  0  0
    0.8452   -2.4665   -1.3378 H   0  0  0  0  0  0  0  0  0  0  0  0
    2.4574   -3.5603   -2.9352 H   0  0  0  0  0  0  0  0  0  0  0  0
    3.5824   -2.1024   -2.8270 H   0  0  0  0  0  0  0  0  0  0  0  0
    1.7399   -0.6072   -3.7233 H   0  0  0  0  0  0  0  0  0  0  0  0
    0.6184   -2.0742   -3.8478 H   0  0  0  0  0  0  0  0  0  0  0  0
  1  2  1  0
  2  3  1  0
  2  6  2  0
  3  4  1  0
  3 27  1  0
  4  5  2  0
  5  6  1  0
  5 10  1  0
  6  7  1  0
  7  8  2  0
  7 28  1  0
  8  9  1  0
  8 11  1  0
  9 10  2  0
  9 29  1  0
 10 30  1  0
 11 12  1  0
 11 15  1  0
 12 13  2  0
 12 24  1  0
 13 14  1  0
 14 15  2  0
 14 19  1  0
 15 16  1  0
 16 17  2  0
 17 18  1  0
 17 20  1  0
 18 19  2  0
 18 31  1  0
 19 32  1  0
 20 21  1  0
 20 22  1  0
 20 23  1  0
 24 25  1  0
 24 26  1  0
 24 33  1  0
 25 26  1  0
 25 34  1  0
 25 35  1  0
 26 36  1  0
 26 37  1  0
M  END
>  <group_name>  (1) 
JNS

>  <molecule_index>  (1) 
01596

>  <conformer_index>  (1) 
07

>  <method>  (1) 
openff-1.3.0

>  <basis>  (1) 
smirnoff

>  <program>  (1) 
openmm

>  <initial_energy>  (1) 
160.31014502383968 kilocalorie / mole

>  <final_energy>  (1) 
146.00308684783994 kilocalorie / mole

$$$$
