JNS-01586-00
     RDKit          3D

 40 44  0  0  0  0  0  0  0  0999 V2000
   -0.0701   -1.5426   -1.2164 F   0  0  0  0  0  0  0  0  0  0  0  0
    0.1887   -0.9625   -0.0066 C   0  0  0  0  0  0  0  0  0  0  0  0
   -0.2560   -1.8113    0.9683 F   0  0  0  0  0  0  0  0  0  0  0  0
   -0.5366    0.1926    0.0692 F   0  0  0  0  0  0  0  0  0  0  0  0
    1.6835   -0.6452    0.1093 C   0  0  0  0  0  0  0  0  0  0  0  0
    2.4169   -1.1303    1.1505 N   0  0  0  0  0  0  0  0  0  0  0  0
    3.7289   -0.8254    1.1850 C   0  0  0  0  0  0  0  0  0  0  0  0
    4.6804   -1.1481    2.1159 C   0  0  0  0  0  0  0  0  0  0  0  0
    5.8638   -0.5712    1.6291 N   0  0  0  0  0  0  0  0  0  0  0  0
    5.6232    0.1421    0.4909 N   0  0  0  0  0  0  0  0  0  0  0  0
    4.3570   -0.0402    0.2336 C   0  0  0  0  0  0  0  0  0  0  0  0
    3.6411    0.4708   -0.8356 C   0  0  0  0  0  0  0  0  0  0  0  0
    2.2843    0.1554   -0.8915 C   0  0  0  0  0  0  0  0  0  0  0  0
    7.1753   -0.7996    2.0955 C   0  0  0  0  0  0  0  0  0  0  0  0
    8.1779    0.1637    1.8677 C   0  0  0  0  0  0  0  0  0  0  0  0
    9.4894   -0.0398    2.3127 C   0  0  0  0  0  0  0  0  0  0  0  0
    9.8263   -1.2176    2.9837 C   0  0  0  0  0  0  0  0  0  0  0  0
    8.8524   -2.1952    3.1998 C   0  0  0  0  0  0  0  0  0  0  0  0
    7.5411   -1.9920    2.7540 C   0  0  0  0  0  0  0  0  0  0  0  0
    4.4395   -1.8653    3.3814 C   0  0  0  0  0  0  0  0  0  0  0  0
    5.0696   -1.4499    4.5739 C   0  0  0  0  0  0  0  0  0  0  0  0
    4.8460   -2.1311    5.7799 C   0  0  0  0  0  0  0  0  0  0  0  0
    3.9800   -3.2249    5.7877 C   0  0  0  0  0  0  0  0  0  0  0  0
    3.5446   -4.0921    6.7760 N   0  0  0  0  0  0  0  0  0  0  0  0
    2.6697   -5.0190    6.2882 N   0  0  0  0  0  0  0  0  0  0  0  0
    2.5309   -4.7585    5.0083 C   0  0  0  0  0  0  0  0  0  0  0  0
    3.3503   -3.6263    4.6396 C   0  0  0  0  0  0  0  0  0  0  0  0
    3.5582   -2.9615    3.4277 C   0  0  0  0  0  0  0  0  0  0  0  0
    4.1221    1.0889   -1.5888 H   0  0  0  0  0  0  0  0  0  0  0  0
    1.6790    0.5304   -1.7107 H   0  0  0  0  0  0  0  0  0  0  0  0
    7.9371    1.0864    1.3454 H   0  0  0  0  0  0  0  0  0  0  0  0
   10.2468    0.7187    2.1329 H   0  0  0  0  0  0  0  0  0  0  0  0
   10.8450   -1.3770    3.3274 H   0  0  0  0  0  0  0  0  0  0  0  0
    9.1149   -3.1204    3.7061 H   0  0  0  0  0  0  0  0  0  0  0  0
    6.8193   -2.7890    2.9080 H   0  0  0  0  0  0  0  0  0  0  0  0
    5.7309   -0.5880    4.5671 H   0  0  0  0  0  0  0  0  0  0  0  0
    5.3340   -1.8061    6.6935 H   0  0  0  0  0  0  0  0  0  0  0  0
    3.8317   -4.0321    7.7531 H   0  0  0  0  0  0  0  0  0  0  0  0
    1.8948   -5.3143    4.3258 H   0  0  0  0  0  0  0  0  0  0  0  0
    3.0418   -3.2948    2.5312 H   0  0  0  0  0  0  0  0  0  0  0  0
  1  2  1  0
  2  3  1  0
  2  4  1  0
  2  5  1  0
  5  6  2  0
  5 13  1  0
  6  7  1  0
  7  8  2  0
  7 11  1  0
  8  9  1  0
  8 20  1  0
  9 10  1  0
  9 14  1  0
 10 11  2  0
 11 12  1  0
 12 13  2  0
 12 29  1  0
 13 30  1  0
 14 15  2  0
 14 19  1  0
 15 16  1  0
 15 31  1  0
 16 17  2  0
 16 32  1  0
 17 18  1  0
 17 33  1  0
 18 19  2  0
 18 34  1  0
 19 35  1  0
 20 21  2  0
 20 28  1  0
 21 22  1  0
 21 36  1  0
 22 23  2  0
 22 37  1  0
 23 24  1  0
 23 27  1  0
 24 25  1  0
 24 38  1  0
 25 26  2  0
 26 27  1  0
 26 39  1  0
 27 28  2  0
 28 40  1  0
M  END
>  <group_name>  (1) 
JNS

>  <molecule_index>  (1) 
01586

>  <conformer_index>  (1) 
00

>  <method>  (1) 
openff-1.3.0

>  <basis>  (1) 
smirnoff

>  <program>  (1) 
openmm

>  <initial_energy>  (1) 
186.95261108347788 kilocalorie / mole

>  <final_energy>  (1) 
174.0709465739486 kilocalorie / mole

$$$$
