JNS-01564-08
     RDKit          3D

 45 49  0  0  0  0  0  0  0  0999 V2000
   -2.4597    0.4862   -2.7241 C   0  0  0  0  0  0  0  0  0  0  0  0
   -1.8402    0.2441   -1.3702 C   0  0  0  0  0  0  0  0  0  0  0  0
   -2.6356    0.0844   -0.2321 C   0  0  0  0  0  0  0  0  0  0  0  0
   -4.0124    0.0896   -0.1136 N   0  0  0  0  0  0  0  0  0  0  0  0
   -4.3442   -0.2448    1.1667 C   0  0  0  0  0  0  0  0  0  0  0  0
   -5.4856   -0.5592    1.4745 O   0  0  0  0  0  0  0  0  0  0  0  0
   -3.1207   -0.3521    2.0681 C   0  0  0  0  0  0  0  0  0  0  0  0
   -2.0676   -0.1448    1.0106 C   0  0  0  0  0  0  0  0  0  0  0  0
   -0.6816   -0.2085    1.1630 C   0  0  0  0  0  0  0  0  0  0  0  0
    0.1501   -0.0207    0.0444 C   0  0  0  0  0  0  0  0  0  0  0  0
   -0.4438    0.1929   -1.2164 C   0  0  0  0  0  0  0  0  0  0  0  0
    1.6171   -0.0681    0.1754 C   0  0  0  0  0  0  0  0  0  0  0  0
    2.4990   -0.6350   -0.7051 C   0  0  0  0  0  0  0  0  0  0  0  0
    2.2662   -1.2606   -1.8751 N   0  0  0  0  0  0  0  0  0  0  0  0
    3.3427   -1.7542   -2.5498 C   0  0  0  0  0  0  0  0  0  0  0  0
    4.6526   -1.6116   -2.0323 C   0  0  0  0  0  0  0  0  0  0  0  0
    4.8755   -0.9629   -0.8184 C   0  0  0  0  0  0  0  0  0  0  0  0
    3.7615   -0.4722   -0.1593 C   0  0  0  0  0  0  0  0  0  0  0  0
    3.7376    0.1599    0.9826 N   0  0  0  0  0  0  0  0  0  0  0  0
    2.4225    0.4410    1.2005 N   0  0  0  0  0  0  0  0  0  0  0  0
    1.9578    1.3099    2.2988 C   0  0  0  0  0  0  0  0  0  0  0  0
    2.9723    2.2930    2.8976 C   0  0  0  0  0  0  0  0  0  0  0  0
    1.9408    3.4097    2.8058 C   0  0  0  0  0  0  0  0  0  0  0  0
    1.0971    2.5158    1.9071 C   0  0  0  0  0  0  0  0  0  0  0  0
    3.1596   -2.4685   -3.8933 C   0  0  0  0  0  0  0  0  0  0  0  0
    3.5683   -3.7675   -3.7868 F   0  0  0  0  0  0  0  0  0  0  0  0
    1.8642   -2.4622   -4.3303 F   0  0  0  0  0  0  0  0  0  0  0  0
    3.9256   -1.8631   -4.8492 F   0  0  0  0  0  0  0  0  0  0  0  0
   -2.9528   -0.4245   -3.0770 H   0  0  0  0  0  0  0  0  0  0  0  0
   -3.1991    1.2906   -2.6635 H   0  0  0  0  0  0  0  0  0  0  0  0
   -1.6987    0.7742   -3.4558 H   0  0  0  0  0  0  0  0  0  0  0  0
   -4.6267   -0.2062   -0.8637 H   0  0  0  0  0  0  0  0  0  0  0  0
   -3.1152    0.4440    2.8158 H   0  0  0  0  0  0  0  0  0  0  0  0
   -3.0577   -1.3411    2.5281 H   0  0  0  0  0  0  0  0  0  0  0  0
   -0.2611   -0.4243    2.1395 H   0  0  0  0  0  0  0  0  0  0  0  0
    0.1919    0.3212   -2.0884 H   0  0  0  0  0  0  0  0  0  0  0  0
    5.4936   -2.0136   -2.5884 H   0  0  0  0  0  0  0  0  0  0  0  0
    5.8717   -0.8437   -0.4012 H   0  0  0  0  0  0  0  0  0  0  0  0
    1.4891    0.7119    3.0856 H   0  0  0  0  0  0  0  0  0  0  0  0
    3.2976    2.0464    3.9132 H   0  0  0  0  0  0  0  0  0  0  0  0
    3.8460    2.4807    2.2638 H   0  0  0  0  0  0  0  0  0  0  0  0
    1.4627    3.6415    3.7636 H   0  0  0  0  0  0  0  0  0  0  0  0
    2.3013    4.3275    2.3294 H   0  0  0  0  0  0  0  0  0  0  0  0
    0.0434    2.4395    2.1939 H   0  0  0  0  0  0  0  0  0  0  0  0
    1.1759    2.7853    0.8479 H   0  0  0  0  0  0  0  0  0  0  0  0
  1  2  1  0
  1 29  1  0
  1 30  1  0
  1 31  1  0
  2  3  2  0
  2 11  1  0
  3  4  1  0
  3  8  1  0
  4  5  1  0
  4 32  1  0
  5  6  2  0
  5  7  1  0
  7  8  1  0
  7 33  1  0
  7 34  1  0
  8  9  2  0
  9 10  1  0
  9 35  1  0
 10 11  2  0
 10 12  1  0
 11 36  1  0
 12 13  2  0
 12 20  1  0
 13 14  1  0
 13 18  1  0
 14 15  2  0
 15 16  1  0
 15 25  1  0
 16 17  2  0
 16 37  1  0
 17 18  1  0
 17 38  1  0
 18 19  2  0
 19 20  1  0
 20 21  1  0
 21 22  1  0
 21 24  1  0
 21 39  1  0
 22 23  1  0
 22 40  1  0
 22 41  1  0
 23 24  1  0
 23 42  1  0
 23 43  1  0
 24 44  1  0
 24 45  1  0
 25 26  1  0
 25 27  1  0
 25 28  1  0
M  END
>  <group_name>  (1) 
JNS

>  <molecule_index>  (1) 
01564

>  <conformer_index>  (1) 
08

>  <method>  (1) 
openff-1.3.0

>  <basis>  (1) 
smirnoff

>  <program>  (1) 
openmm

>  <initial_energy>  (1) 
139.1472307684897 kilocalorie / mole

>  <final_energy>  (1) 
124.84848379040297 kilocalorie / mole

$$$$
