JNS-00690-06
     RDKit          3D

 38 42  0  0  0  0  0  0  0  0999 V2000
   -0.8191   -1.6222   -0.0955 O   0  0  0  0  0  0  0  0  0  0  0  0
   -0.1174   -0.3715   -0.1057 C   0  0  0  0  0  0  0  0  0  0  0  0
   -0.6480    0.6378   -1.1147 C   0  0  0  0  0  0  0  0  0  0  0  0
   -0.9084    0.8388    0.3743 C   0  0  0  0  0  0  0  0  0  0  0  0
    1.3872   -0.4165    0.1240 C   0  0  0  0  0  0  0  0  0  0  0  0
    2.1947   -0.6684   -0.8821 N   0  0  0  0  0  0  0  0  0  0  0  0
    3.4664   -0.5581   -0.3468 C   0  0  0  0  0  0  0  0  0  0  0  0
    3.4310   -0.2374    0.9978 C   0  0  0  0  0  0  0  0  0  0  0  0
    4.5363   -0.0768    1.7542 N   0  0  0  0  0  0  0  0  0  0  0  0
    5.7464   -0.2358    1.1472 C   0  0  0  0  0  0  0  0  0  0  0  0
    5.8292   -0.5601   -0.2286 C   0  0  0  0  0  0  0  0  0  0  0  0
    4.6756   -0.7263   -0.9954 C   0  0  0  0  0  0  0  0  0  0  0  0
    7.0489   -0.0586    1.9382 C   0  0  0  0  0  0  0  0  0  0  0  0
    6.8389    0.3298    3.2317 F   0  0  0  0  0  0  0  0  0  0  0  0
    7.8291    0.8877    1.3366 F   0  0  0  0  0  0  0  0  0  0  0  0
    7.7442   -1.2339    1.9505 F   0  0  0  0  0  0  0  0  0  0  0  0
    2.0862   -0.1695    1.3188 N   0  0  0  0  0  0  0  0  0  0  0  0
    1.5451    0.0560    2.6034 C   0  0  0  0  0  0  0  0  0  0  0  0
    0.3484   -0.5688    3.0161 C   0  0  0  0  0  0  0  0  0  0  0  0
   -0.1677   -0.3155    4.2902 C   0  0  0  0  0  0  0  0  0  0  0  0
    0.4743    0.5216    5.1616 C   0  0  0  0  0  0  0  0  0  0  0  0
   -0.2990    0.5349    6.3104 N   0  0  0  0  0  0  0  0  0  0  0  0
   -1.3999   -0.2629    6.1889 N   0  0  0  0  0  0  0  0  0  0  0  0
   -1.3438   -0.7878    4.9866 C   0  0  0  0  0  0  0  0  0  0  0  0
    1.6669    1.1446    4.7989 C   0  0  0  0  0  0  0  0  0  0  0  0
    2.1982    0.9087    3.5223 C   0  0  0  0  0  0  0  0  0  0  0  0
   -0.3747   -2.2525   -0.6920 H   0  0  0  0  0  0  0  0  0  0  0  0
   -1.4933    0.3321   -1.7389 H   0  0  0  0  0  0  0  0  0  0  0  0
    0.0784    1.2969   -1.6010 H   0  0  0  0  0  0  0  0  0  0  0  0
   -1.9256    0.6629    0.7376 H   0  0  0  0  0  0  0  0  0  0  0  0
   -0.3607    1.6381    0.8836 H   0  0  0  0  0  0  0  0  0  0  0  0
    6.8042   -0.6815   -0.6912 H   0  0  0  0  0  0  0  0  0  0  0  0
    4.7044   -0.9765   -2.0522 H   0  0  0  0  0  0  0  0  0  0  0  0
   -0.1787   -1.2662    2.3739 H   0  0  0  0  0  0  0  0  0  0  0  0
   -0.0642    1.0689    7.1476 H   0  0  0  0  0  0  0  0  0  0  0  0
   -2.0761   -1.4757    4.5745 H   0  0  0  0  0  0  0  0  0  0  0  0
    2.1817    1.8033    5.4915 H   0  0  0  0  0  0  0  0  0  0  0  0
    3.1227    1.4093    3.2508 H   0  0  0  0  0  0  0  0  0  0  0  0
  1  2  1  0
  1 27  1  0
  2  3  1  0
  2  4  1  0
  2  5  1  0
  3  4  1  0
  3 28  1  0
  3 29  1  0
  4 30  1  0
  4 31  1  0
  5  6  2  0
  5 17  1  0
  6  7  1  0
  7  8  2  0
  7 12  1  0
  8  9  1  0
  8 17  1  0
  9 10  2  0
 10 11  1  0
 10 13  1  0
 11 12  2  0
 11 32  1  0
 12 33  1  0
 13 14  1  0
 13 15  1  0
 13 16  1  0
 17 18  1  0
 18 19  2  0
 18 26  1  0
 19 20  1  0
 19 34  1  0
 20 21  2  0
 20 24  1  0
 21 22  1  0
 21 25  1  0
 22 23  1  0
 22 35  1  0
 23 24  2  0
 24 36  1  0
 25 26  2  0
 25 37  1  0
 26 38  1  0
M  END
>  <group_name>  (1) 
JNS

>  <molecule_index>  (1) 
00690

>  <conformer_index>  (1) 
06

>  <method>  (1) 
openff-1.3.0

>  <basis>  (1) 
smirnoff

>  <program>  (1) 
openmm

>  <initial_energy>  (1) 
193.03610620847124 kilocalorie / mole

>  <final_energy>  (1) 
180.59393011583924 kilocalorie / mole

$$$$
