JNS-01589-00
     RDKit          3D

 43 47  0  0  0  0  0  0  0  0999 V2000
   -2.8464    0.2130   -2.4253 C   0  0  0  0  0  0  0  0  0  0  0  0
   -2.0967    0.1721   -1.1173 C   0  0  0  0  0  0  0  0  0  0  0  0
   -2.7764    0.2945    0.1015 C   0  0  0  0  0  0  0  0  0  0  0  0
   -4.0647    0.4416    0.2922 N   0  0  0  0  0  0  0  0  0  0  0  0
   -4.2131    0.5289    1.6402 N   0  0  0  0  0  0  0  0  0  0  0  0
   -2.9930    0.4308    2.2920 C   0  0  0  0  0  0  0  0  0  0  0  0
   -2.0784    0.2796    1.2984 C   0  0  0  0  0  0  0  0  0  0  0  0
   -0.6918    0.1345    1.3295 C   0  0  0  0  0  0  0  0  0  0  0  0
    0.0175   -0.0061    0.1250 C   0  0  0  0  0  0  0  0  0  0  0  0
   -0.6976    0.0295   -1.0908 C   0  0  0  0  0  0  0  0  0  0  0  0
    1.4809   -0.1708    0.1390 C   0  0  0  0  0  0  0  0  0  0  0  0
    2.3750    0.4587    0.9630 C   0  0  0  0  0  0  0  0  0  0  0  0
    2.1634    1.3550    1.9464 N   0  0  0  0  0  0  0  0  0  0  0  0
    3.2545    1.8387    2.6035 C   0  0  0  0  0  0  0  0  0  0  0  0
    4.5595    1.4119    2.2587 C   0  0  0  0  0  0  0  0  0  0  0  0
    4.7622    0.4855    1.2369 C   0  0  0  0  0  0  0  0  0  0  0  0
    3.6332    0.0128    0.5905 C   0  0  0  0  0  0  0  0  0  0  0  0
    3.5925   -0.8504   -0.3880 N   0  0  0  0  0  0  0  0  0  0  0  0
    2.2669   -0.9949   -0.6713 N   0  0  0  0  0  0  0  0  0  0  0  0
    1.7350   -2.0269   -1.5828 C   0  0  0  0  0  0  0  0  0  0  0  0
    2.5658   -3.3084   -1.7240 C   0  0  0  0  0  0  0  0  0  0  0  0
    2.9588   -2.9052   -3.1396 C   0  0  0  0  0  0  0  0  0  0  0  0
    1.9719   -1.7462   -3.0681 C   0  0  0  0  0  0  0  0  0  0  0  0
    3.0931    2.8518    3.7420 C   0  0  0  0  0  0  0  0  0  0  0  0
    3.6969    4.0294    3.4032 F   0  0  0  0  0  0  0  0  0  0  0  0
    1.7865    3.1140    4.0472 F   0  0  0  0  0  0  0  0  0  0  0  0
    3.6984    2.3803    4.8728 F   0  0  0  0  0  0  0  0  0  0  0  0
   -2.1593    0.1687   -3.2749 H   0  0  0  0  0  0  0  0  0  0  0  0
   -3.4243    1.1395   -2.4936 H   0  0  0  0  0  0  0  0  0  0  0  0
   -3.5344   -0.6354   -2.4854 H   0  0  0  0  0  0  0  0  0  0  0  0
   -5.1095    0.6635    2.1050 H   0  0  0  0  0  0  0  0  0  0  0  0
   -2.7987    0.4720    3.3594 H   0  0  0  0  0  0  0  0  0  0  0  0
   -0.1709    0.1279    2.2824 H   0  0  0  0  0  0  0  0  0  0  0  0
   -0.1605   -0.0325   -2.0302 H   0  0  0  0  0  0  0  0  0  0  0  0
    5.4126    1.8123    2.7971 H   0  0  0  0  0  0  0  0  0  0  0  0
    5.7543    0.1447    0.9539 H   0  0  0  0  0  0  0  0  0  0  0  0
    0.6908   -2.2573   -1.3508 H   0  0  0  0  0  0  0  0  0  0  0  0
    1.9583   -4.2185   -1.6899 H   0  0  0  0  0  0  0  0  0  0  0  0
    3.4065   -3.4059   -1.0292 H   0  0  0  0  0  0  0  0  0  0  0  0
    4.0024   -2.5834   -3.2256 H   0  0  0  0  0  0  0  0  0  0  0  0
    2.7279   -3.6529   -3.9054 H   0  0  0  0  0  0  0  0  0  0  0  0
    1.0804   -1.8980   -3.6853 H   0  0  0  0  0  0  0  0  0  0  0  0
    2.4144   -0.7676   -3.2839 H   0  0  0  0  0  0  0  0  0  0  0  0
  1  2  1  0
  1 28  1  0
  1 29  1  0
  1 30  1  0
  2  3  1  0
  2 10  2  0
  3  4  2  0
  3  7  1  0
  4  5  1  0
  5  6  1  0
  5 31  1  0
  6  7  2  0
  6 32  1  0
  7  8  1  0
  8  9  2  0
  8 33  1  0
  9 10  1  0
  9 11  1  0
 10 34  1  0
 11 12  2  0
 11 19  1  0
 12 13  1  0
 12 17  1  0
 13 14  2  0
 14 15  1  0
 14 24  1  0
 15 16  2  0
 15 35  1  0
 16 17  1  0
 16 36  1  0
 17 18  2  0
 18 19  1  0
 19 20  1  0
 20 21  1  0
 20 23  1  0
 20 37  1  0
 21 22  1  0
 21 38  1  0
 21 39  1  0
 22 23  1  0
 22 40  1  0
 22 41  1  0
 23 42  1  0
 23 43  1  0
 24 25  1  0
 24 26  1  0
 24 27  1  0
M  END
>  <group_name>  (1) 
JNS

>  <molecule_index>  (1) 
01589

>  <conformer_index>  (1) 
00

>  <method>  (1) 
openff-1.3.0

>  <basis>  (1) 
smirnoff

>  <program>  (1) 
openmm

>  <initial_energy>  (1) 
178.8014786761354 kilocalorie / mole

>  <final_energy>  (1) 
161.693116788932 kilocalorie / mole

$$$$
