JNS-02158-03
     RDKit          3D

 42 45  0  0  0  0  0  0  0  0999 V2000
   -0.7617    0.8985   -0.7881 C   0  0  0  0  0  0  0  0  0  0  0  0
    0.3284    1.6418   -1.5675 C   0  0  2  0  0  0  0  0  0  0  0  0
    1.1619    2.4400   -0.6420 N   0  0  0  0  0  0  0  0  0  0  0  0
    1.0031    3.9064   -0.5678 C   0  0  0  0  0  0  0  0  0  0  0  0
   -0.3666    4.4113   -1.0414 C   0  0  0  0  0  0  0  0  0  0  0  0
   -0.6736    3.8047   -2.3888 C   0  0  0  0  0  0  0  0  0  0  0  0
   -0.3280    2.5126   -2.6129 C   0  0  0  0  0  0  0  0  0  0  0  0
   -0.5754    2.1648   -3.9247 N   0  0  0  0  0  0  0  0  0  0  0  0
   -1.0835    3.2163   -4.5144 N   0  0  0  0  0  0  0  0  0  0  0  0
   -1.1703    4.2394   -3.6142 N   0  0  0  0  0  0  0  0  0  0  0  0
   -1.7227    5.5071   -3.9167 C   0  0  0  0  0  0  0  0  0  0  0  0
   -1.8493    6.4202   -2.9290 N   0  0  0  0  0  0  0  0  0  0  0  0
   -2.3818    7.6086   -3.2318 C   0  0  0  0  0  0  0  0  0  0  0  0
   -2.7978    7.9185   -4.5110 C   0  0  0  0  0  0  0  0  0  0  0  0
   -3.3371    9.1296   -4.8081 F   0  0  0  0  0  0  0  0  0  0  0  0
   -2.6410    6.9421   -5.4740 C   0  0  0  0  0  0  0  0  0  0  0  0
   -2.1114    5.7505   -5.1871 N   0  0  0  0  0  0  0  0  0  0  0  0
    2.1772    1.8473    0.1018 C   0  0  0  0  0  0  0  0  0  0  0  0
    2.8546    2.5347    0.8597 O   0  0  0  0  0  0  0  0  0  0  0  0
    2.5462    0.4388   -0.0535 C   0  0  0  0  0  0  0  0  0  0  0  0
    3.2238   -0.0152   -1.1892 C   0  0  0  0  0  0  0  0  0  0  0  0
    3.5798   -1.3590   -1.2974 C   0  0  0  0  0  0  0  0  0  0  0  0
    3.2967   -2.2637   -0.3443 N   0  0  0  0  0  0  0  0  0  0  0  0
    2.6491   -1.8458    0.7835 C   0  0  0  0  0  0  0  0  0  0  0  0
    2.2671   -0.4919    0.9526 C   0  0  0  0  0  0  0  0  0  0  0  0
    1.6134   -0.0841    2.0735 F   0  0  0  0  0  0  0  0  0  0  0  0
    2.3113   -2.8489    1.8909 C   0  0  0  0  0  0  0  0  0  0  0  0
    2.9090   -2.4828    3.0624 F   0  0  0  0  0  0  0  0  0  0  0  0
    2.7301   -4.1149    1.5931 F   0  0  0  0  0  0  0  0  0  0  0  0
    0.9594   -2.8994    2.0792 F   0  0  0  0  0  0  0  0  0  0  0  0
   -1.3782    0.3099   -1.4748 H   0  0  0  0  0  0  0  0  0  0  0  0
   -0.3230    0.2168   -0.0551 H   0  0  0  0  0  0  0  0  0  0  0  0
   -1.4087    1.6055   -0.2599 H   0  0  0  0  0  0  0  0  0  0  0  0
    0.9394    0.9147   -2.1094 H   0  0  0  0  0  0  0  0  0  0  0  0
    1.7808    4.3692   -1.1845 H   0  0  0  0  0  0  0  0  0  0  0  0
    1.1516    4.2524    0.4612 H   0  0  0  0  0  0  0  0  0  0  0  0
   -1.1406    4.1177   -0.3260 H   0  0  0  0  0  0  0  0  0  0  0  0
   -0.3443    5.5027   -1.0860 H   0  0  0  0  0  0  0  0  0  0  0  0
   -2.4901    8.3527   -2.4477 H   0  0  0  0  0  0  0  0  0  0  0  0
   -2.9566    7.1475   -6.4931 H   0  0  0  0  0  0  0  0  0  0  0  0
    3.4911    0.6700   -1.9887 H   0  0  0  0  0  0  0  0  0  0  0  0
    4.1068   -1.6909   -2.1874 H   0  0  0  0  0  0  0  0  0  0  0  0
  1  2  1  0
  1 31  1  0
  1 32  1  0
  1 33  1  0
  2  3  1  0
  2  7  1  0
  2 34  1  6
  3  4  1  0
  3 18  1  0
  4  5  1  0
  4 35  1  0
  4 36  1  0
  5  6  1  0
  5 37  1  0
  5 38  1  0
  6  7  2  0
  6 10  1  0
  7  8  1  0
  8  9  2  0
  9 10  1  0
 10 11  1  0
 11 12  2  0
 11 17  1  0
 12 13  1  0
 13 14  2  0
 13 39  1  0
 14 15  1  0
 14 16  1  0
 16 17  2  0
 16 40  1  0
 18 19  2  0
 18 20  1  0
 20 21  2  0
 20 25  1  0
 21 22  1  0
 21 41  1  0
 22 23  2  0
 22 42  1  0
 23 24  1  0
 24 25  2  0
 24 27  1  0
 25 26  1  0
 27 28  1  0
 27 29  1  0
 27 30  1  0
M  END
>  <group_name>  (1) 
JNS

>  <molecule_index>  (1) 
02158

>  <conformer_index>  (1) 
03

>  <method>  (1) 
openff-1.3.0

>  <basis>  (1) 
smirnoff

>  <program>  (1) 
openmm

>  <initial_energy>  (1) 
89.39037831491154 kilocalorie / mole

>  <final_energy>  (1) 
79.28116348795048 kilocalorie / mole

$$$$
