JNS-01861-04
     RDKit          3D

 34 37  0  0  0  0  0  0  0  0999 V2000
   -2.7984   -2.6841   -0.2524 C   0  0  0  0  0  0  0  0  0  0  0  0
   -2.1038   -1.3530   -0.1095 C   0  0  0  0  0  0  0  0  0  0  0  0
   -0.6992   -1.2709   -0.0837 C   0  0  0  0  0  0  0  0  0  0  0  0
   -0.0219   -0.0354    0.0603 C   0  0  0  0  0  0  0  0  0  0  0  0
   -0.8069    1.1314    0.1790 C   0  0  0  0  0  0  0  0  0  0  0  0
   -2.1986    1.0429    0.1568 C   0  0  0  0  0  0  0  0  0  0  0  0
   -2.8441   -0.1724    0.0149 C   0  0  0  0  0  0  0  0  0  0  0  0
   -4.1476   -0.0348    0.0186 N   0  0  0  0  0  0  0  0  0  0  0  0
   -4.3600    1.2988    0.1672 N   0  0  0  0  0  0  0  0  0  0  0  0
   -3.1639    1.9949    0.2547 C   0  0  0  0  0  0  0  0  0  0  0  0
    1.3926    0.0074    0.0736 N   0  0  0  0  0  0  0  0  0  0  0  0
    2.2163   -1.0170   -0.4221 C   0  0  0  0  0  0  0  0  0  0  0  0
    3.5354   -0.6632   -0.2546 C   0  0  0  0  0  0  0  0  0  0  0  0
    3.5365    0.6343    0.3750 C   0  0  0  0  0  0  0  0  0  0  0  0
    2.2181    1.0353    0.5684 C   0  0  0  0  0  0  0  0  0  0  0  0
    1.8997    2.2065    1.1574 N   0  0  0  0  0  0  0  0  0  0  0  0
    2.9131    3.0215    1.5618 C   0  0  0  0  0  0  0  0  0  0  0  0
    4.2636    2.6476    1.3726 C   0  0  0  0  0  0  0  0  0  0  0  0
    4.5928    1.4358    0.7721 C   0  0  0  0  0  0  0  0  0  0  0  0
    2.6130    4.3724    2.2251 C   0  0  0  0  0  0  0  0  0  0  0  0
    1.2769    4.6591    2.2736 F   0  0  0  0  0  0  0  0  0  0  0  0
    3.2313    5.3763    1.5347 F   0  0  0  0  0  0  0  0  0  0  0  0
    3.0979    4.3791    3.5021 F   0  0  0  0  0  0  0  0  0  0  0  0
   -3.4860   -2.8368    0.5847 H   0  0  0  0  0  0  0  0  0  0  0  0
   -2.0772   -3.5061   -0.2635 H   0  0  0  0  0  0  0  0  0  0  0  0
   -3.3693   -2.7059   -1.1853 H   0  0  0  0  0  0  0  0  0  0  0  0
   -0.1421   -2.1967   -0.1584 H   0  0  0  0  0  0  0  0  0  0  0  0
   -0.3656    2.1158    0.2731 H   0  0  0  0  0  0  0  0  0  0  0  0
   -5.2845    1.7240    0.2136 H   0  0  0  0  0  0  0  0  0  0  0  0
   -3.0189    3.0638    0.3787 H   0  0  0  0  0  0  0  0  0  0  0  0
    1.8791   -1.9382   -0.8869 H   0  0  0  0  0  0  0  0  0  0  0  0
    4.4062   -1.2454   -0.5444 H   0  0  0  0  0  0  0  0  0  0  0  0
    5.0530    3.3157    1.7035 H   0  0  0  0  0  0  0  0  0  0  0  0
    5.6246    1.1291    0.6229 H   0  0  0  0  0  0  0  0  0  0  0  0
  1  2  1  0
  1 24  1  0
  1 25  1  0
  1 26  1  0
  2  3  2  0
  2  7  1  0
  3  4  1  0
  3 27  1  0
  4  5  2  0
  4 11  1  0
  5  6  1  0
  5 28  1  0
  6  7  1  0
  6 10  2  0
  7  8  2  0
  8  9  1  0
  9 10  1  0
  9 29  1  0
 10 30  1  0
 11 12  1  0
 11 15  1  0
 12 13  2  0
 12 31  1  0
 13 14  1  0
 13 32  1  0
 14 15  2  0
 14 19  1  0
 15 16  1  0
 16 17  2  0
 17 18  1  0
 17 20  1  0
 18 19  2  0
 18 33  1  0
 19 34  1  0
 20 21  1  0
 20 22  1  0
 20 23  1  0
M  END
>  <group_name>  (1) 
JNS

>  <molecule_index>  (1) 
01861

>  <conformer_index>  (1) 
04

>  <method>  (1) 
openff-1.3.0

>  <basis>  (1) 
smirnoff

>  <program>  (1) 
openmm

>  <initial_energy>  (1) 
147.83238431624852 kilocalorie / mole

>  <final_energy>  (1) 
134.0069952856477 kilocalorie / mole

$$$$
