JNS-01358-05
     RDKit          3D

 41 45  0  0  0  0  0  0  0  0999 V2000
   -2.5549   -2.6689   -1.6359 F   0  0  0  0  0  0  0  0  0  0  0  0
   -2.0665   -1.4452   -1.3238 C   0  0  0  0  0  0  0  0  0  0  0  0
   -2.8887   -0.3834   -1.3930 N   0  0  0  0  0  0  0  0  0  0  0  0
   -2.3726    0.8179   -1.0891 C   0  0  0  0  0  0  0  0  0  0  0  0
   -1.0456    1.0026   -0.6944 C   0  0  0  0  0  0  0  0  0  0  0  0
   -0.1812   -0.0919   -0.5922 C   0  0  0  0  0  0  0  0  0  0  0  0
   -0.7300   -1.3312   -0.9360 C   0  0  0  0  0  0  0  0  0  0  0  0
    1.2380    0.0410   -0.1940 C   0  0  0  0  0  0  0  0  0  0  0  0
    2.1433   -0.7914   -0.6601 N   0  0  0  0  0  0  0  0  0  0  0  0
    3.3525   -0.3024   -0.1964 C   0  0  0  0  0  0  0  0  0  0  0  0
    3.1794    0.8334    0.5696 C   0  0  0  0  0  0  0  0  0  0  0  0
    4.1928    1.5122    1.1437 N   0  0  0  0  0  0  0  0  0  0  0  0
    5.4572    1.0437    0.9429 C   0  0  0  0  0  0  0  0  0  0  0  0
    5.6842   -0.1152    0.1611 C   0  0  0  0  0  0  0  0  0  0  0  0
    4.6205   -0.8059   -0.4214 C   0  0  0  0  0  0  0  0  0  0  0  0
    6.6652    1.7650    1.5543 C   0  0  0  0  0  0  0  0  0  0  0  0
    7.5434    2.1114    0.5673 F   0  0  0  0  0  0  0  0  0  0  0  0
    7.3095    0.9300    2.4215 F   0  0  0  0  0  0  0  0  0  0  0  0
    6.3191    2.9018    2.2298 F   0  0  0  0  0  0  0  0  0  0  0  0
    1.8127    1.0361    0.6176 N   0  0  0  0  0  0  0  0  0  0  0  0
    1.1553    1.8999    1.5171 C   0  0  0  0  0  0  0  0  0  0  0  0
    1.6782    3.1802    1.7916 C   0  0  0  0  0  0  0  0  0  0  0  0
    1.0192    4.0248    2.6885 C   0  0  0  0  0  0  0  0  0  0  0  0
   -0.1403    3.6164    3.3227 C   0  0  0  0  0  0  0  0  0  0  0  0
   -0.5919    4.6168    4.1585 N   0  0  0  0  0  0  0  0  0  0  0  0
    0.3237    5.6296    4.1568 C   0  0  0  0  0  0  0  0  0  0  0  0
    0.2997    6.5131    5.0022 O   0  0  0  0  0  0  0  0  0  0  0  0
    1.4332    5.4024    3.1373 C   0  0  0  0  0  0  0  0  0  0  0  0
   -0.6695    2.3513    3.0917 C   0  0  0  0  0  0  0  0  0  0  0  0
   -0.0187    1.4940    2.1922 C   0  0  0  0  0  0  0  0  0  0  0  0
   -3.0195    1.6879   -1.1558 H   0  0  0  0  0  0  0  0  0  0  0  0
   -0.7052    2.0114   -0.4834 H   0  0  0  0  0  0  0  0  0  0  0  0
   -0.1249   -2.2317   -0.9089 H   0  0  0  0  0  0  0  0  0  0  0  0
    6.7001   -0.4701    0.0143 H   0  0  0  0  0  0  0  0  0  0  0  0
    4.7606   -1.6975   -1.0264 H   0  0  0  0  0  0  0  0  0  0  0  0
    2.5903    3.5234    1.3110 H   0  0  0  0  0  0  0  0  0  0  0  0
   -1.0995    4.4327    5.0168 H   0  0  0  0  0  0  0  0  0  0  0  0
    1.3771    6.1332    2.3277 H   0  0  0  0  0  0  0  0  0  0  0  0
    2.4151    5.4046    3.6169 H   0  0  0  0  0  0  0  0  0  0  0  0
   -1.5707    2.0314    3.6060 H   0  0  0  0  0  0  0  0  0  0  0  0
   -0.4273    0.4989    2.0413 H   0  0  0  0  0  0  0  0  0  0  0  0
  1  2  1  0
  2  3  2  0
  2  7  1  0
  3  4  1  0
  4  5  2  0
  4 31  1  0
  5  6  1  0
  5 32  1  0
  6  7  2  0
  6  8  1  0
  7 33  1  0
  8  9  2  0
  8 20  1  0
  9 10  1  0
 10 11  2  0
 10 15  1  0
 11 12  1  0
 11 20  1  0
 12 13  2  0
 13 14  1  0
 13 16  1  0
 14 15  2  0
 14 34  1  0
 15 35  1  0
 16 17  1  0
 16 18  1  0
 16 19  1  0
 20 21  1  0
 21 22  2  0
 21 30  1  0
 22 23  1  0
 22 36  1  0
 23 24  2  0
 23 28  1  0
 24 25  1  0
 24 29  1  0
 25 26  1  0
 25 37  1  0
 26 27  2  0
 26 28  1  0
 28 38  1  0
 28 39  1  0
 29 30  2  0
 29 40  1  0
 30 41  1  0
M  END
>  <group_name>  (1) 
JNS

>  <molecule_index>  (1) 
01358

>  <conformer_index>  (1) 
05

>  <method>  (1) 
openff-1.3.0

>  <basis>  (1) 
smirnoff

>  <program>  (1) 
openmm

>  <initial_energy>  (1) 
98.10413021349436 kilocalorie / mole

>  <final_energy>  (1) 
85.28598811095098 kilocalorie / mole

$$$$
