JNS-01972-01
     RDKit          3D

 38 40  0  0  0  0  0  0  0  0999 V2000
   -0.5675    0.7823   -0.9548 F   0  0  0  0  0  0  0  0  0  0  0  0
   -0.0280   -0.1160   -0.0786 C   0  0  0  0  0  0  0  0  0  0  0  0
   -0.4048   -1.3593   -0.5054 F   0  0  0  0  0  0  0  0  0  0  0  0
   -0.5999    0.0548    1.1505 F   0  0  0  0  0  0  0  0  0  0  0  0
    1.5033    0.0380   -0.0173 C   0  0  0  0  0  0  0  0  0  0  0  0
    2.2851   -0.9425   -0.5512 N   0  0  0  0  0  0  0  0  0  0  0  0
    3.6242   -0.8259   -0.4587 C   0  0  0  0  0  0  0  0  0  0  0  0
    4.2913    0.2527    0.1652 C   0  0  0  0  0  0  0  0  0  0  0  0
    3.4889    1.2581    0.7067 C   0  0  0  0  0  0  0  0  0  0  0  0
    2.0980    1.1656    0.6174 C   0  0  0  0  0  0  0  0  0  0  0  0
    1.3144    2.2582    1.1962 C   0  0  0  0  0  0  0  0  0  0  0  0
    0.6572    3.1858    0.3747 C   0  0  0  0  0  0  0  0  0  0  0  0
   -0.0780    4.2358    0.9369 C   0  0  0  0  0  0  0  0  0  0  0  0
   -0.1548    4.3711    2.3268 C   0  0  0  0  0  0  0  0  0  0  0  0
    0.5071    3.4570    3.1530 C   0  0  0  0  0  0  0  0  0  0  0  0
    1.2413    2.4074    2.5886 C   0  0  0  0  0  0  0  0  0  0  0  0
    5.7037    0.3286    0.2402 N   0  0  0  0  0  0  0  0  0  0  0  0
    6.5624   -0.5177   -0.6272 C   0  0  0  0  0  0  0  0  0  0  0  0
    7.9331    0.1496   -0.8495 C   0  0  0  0  0  0  0  0  0  0  0  0
    8.6431    0.4379    0.4173 N   0  0  0  0  0  0  0  0  0  0  0  0
    7.7639    0.7105    1.5773 C   0  0  0  0  0  0  0  0  0  0  0  0
    6.3862    1.2654    1.1701 C   0  0  0  0  0  0  0  0  0  0  0  0
    4.2064   -1.6353   -0.8865 H   0  0  0  0  0  0  0  0  0  0  0  0
    3.9175    2.1346    1.1798 H   0  0  0  0  0  0  0  0  0  0  0  0
    0.7181    3.0927   -0.7061 H   0  0  0  0  0  0  0  0  0  0  0  0
   -0.5896    4.9446    0.2920 H   0  0  0  0  0  0  0  0  0  0  0  0
   -0.7280    5.1841    2.7634 H   0  0  0  0  0  0  0  0  0  0  0  0
    0.4485    3.5591    4.2329 H   0  0  0  0  0  0  0  0  0  0  0  0
    1.7503    1.6969    3.2337 H   0  0  0  0  0  0  0  0  0  0  0  0
    6.0927   -0.6597   -1.6054 H   0  0  0  0  0  0  0  0  0  0  0  0
    6.7039   -1.4993   -0.1640 H   0  0  0  0  0  0  0  0  0  0  0  0
    7.7584    1.0951   -1.3741 H   0  0  0  0  0  0  0  0  0  0  0  0
    8.5574   -0.4717   -1.4995 H   0  0  0  0  0  0  0  0  0  0  0  0
    9.3179   -0.2918    0.6503 H   0  0  0  0  0  0  0  0  0  0  0  0
    8.2594    1.4025    2.2657 H   0  0  0  0  0  0  0  0  0  0  0  0
    7.5926   -0.2257    2.1190 H   0  0  0  0  0  0  0  0  0  0  0  0
    5.7956    1.3999    2.0811 H   0  0  0  0  0  0  0  0  0  0  0  0
    6.5115    2.2406    0.6889 H   0  0  0  0  0  0  0  0  0  0  0  0
  1  2  1  0
  2  3  1  0
  2  4  1  0
  2  5  1  0
  5  6  2  0
  5 10  1  0
  6  7  1  0
  7  8  2  0
  7 23  1  0
  8  9  1  0
  8 17  1  0
  9 10  2  0
  9 24  1  0
 10 11  1  0
 11 12  2  0
 11 16  1  0
 12 13  1  0
 12 25  1  0
 13 14  2  0
 13 26  1  0
 14 15  1  0
 14 27  1  0
 15 16  2  0
 15 28  1  0
 16 29  1  0
 17 18  1  0
 17 22  1  0
 18 19  1  0
 18 30  1  0
 18 31  1  0
 19 20  1  0
 19 32  1  0
 19 33  1  0
 20 21  1  0
 20 34  1  0
 21 22  1  0
 21 35  1  0
 21 36  1  0
 22 37  1  0
 22 38  1  0
M  END
>  <group_name>  (1) 
JNS

>  <molecule_index>  (1) 
01972

>  <conformer_index>  (1) 
01

>  <method>  (1) 
openff-1.3.0

>  <basis>  (1) 
smirnoff

>  <program>  (1) 
openmm

>  <initial_energy>  (1) 
190.10478080552187 kilocalorie / mole

>  <final_energy>  (1) 
184.92394461638668 kilocalorie / mole

$$$$
