JNS-01374-02
     RDKit          3D

 32 35  0  0  0  0  0  0  0  0999 V2000
   -0.2255    0.8018   -2.3296 F   0  0  0  0  0  0  0  0  0  0  0  0
    0.0180    0.6135   -0.9994 C   0  0  0  0  0  0  0  0  0  0  0  0
   -0.8030   -0.3781   -0.5456 F   0  0  0  0  0  0  0  0  0  0  0  0
   -0.3379    1.7552   -0.3397 F   0  0  0  0  0  0  0  0  0  0  0  0
    1.4994    0.2800   -0.7835 C   0  0  0  0  0  0  0  0  0  0  0  0
    2.4010    1.2237   -0.5677 N   0  0  0  0  0  0  0  0  0  0  0  0
    3.5858    0.5595   -0.3049 C   0  0  0  0  0  0  0  0  0  0  0  0
    3.4177   -0.8066   -0.3604 C   0  0  0  0  0  0  0  0  0  0  0  0
    4.4067   -1.6966   -0.1524 N   0  0  0  0  0  0  0  0  0  0  0  0
    5.6434   -1.2030    0.1411 C   0  0  0  0  0  0  0  0  0  0  0  0
    5.8649    0.1940    0.2162 C   0  0  0  0  0  0  0  0  0  0  0  0
    4.8251    1.0974   -0.0097 C   0  0  0  0  0  0  0  0  0  0  0  0
    6.8244   -2.1475    0.3990 C   0  0  0  0  0  0  0  0  0  0  0  0
    7.3391   -1.9103    1.6415 F   0  0  0  0  0  0  0  0  0  0  0  0
    6.4760   -3.4666    0.3276 F   0  0  0  0  0  0  0  0  0  0  0  0
    7.8079   -1.9136   -0.5189 F   0  0  0  0  0  0  0  0  0  0  0  0
    2.0911   -1.0035   -0.7010 N   0  0  0  0  0  0  0  0  0  0  0  0
    1.5209   -2.2609   -1.0094 C   0  0  0  0  0  0  0  0  0  0  0  0
    0.6384   -2.4239   -2.0872 C   0  0  0  0  0  0  0  0  0  0  0  0
    0.1390   -3.6982   -2.3138 C   0  0  0  0  0  0  0  0  0  0  0  0
    0.5142   -4.7390   -1.5149 C   0  0  0  0  0  0  0  0  0  0  0  0
   -0.1409   -5.8488   -1.9968 N   0  0  0  0  0  0  0  0  0  0  0  0
   -0.9218   -5.5531   -3.0797 N   0  0  0  0  0  0  0  0  0  0  0  0
   -0.7683   -4.2655   -3.2890 C   0  0  0  0  0  0  0  0  0  0  0  0
    1.3605   -4.6469   -0.4866 N   0  0  0  0  0  0  0  0  0  0  0  0
    1.8606   -3.4138   -0.2536 C   0  0  0  0  0  0  0  0  0  0  0  0
    6.8581    0.5653    0.4518 H   0  0  0  0  0  0  0  0  0  0  0  0
    4.9620    2.1745    0.0387 H   0  0  0  0  0  0  0  0  0  0  0  0
    0.3593   -1.6083   -2.7476 H   0  0  0  0  0  0  0  0  0  0  0  0
   -0.0262   -6.7684   -1.5756 H   0  0  0  0  0  0  0  0  0  0  0  0
   -1.2556   -3.7065   -4.0828 H   0  0  0  0  0  0  0  0  0  0  0  0
    2.5404   -3.3152    0.5872 H   0  0  0  0  0  0  0  0  0  0  0  0
  1  2  1  0
  2  3  1  0
  2  4  1  0
  2  5  1  0
  5  6  2  0
  5 17  1  0
  6  7  1  0
  7  8  2  0
  7 12  1  0
  8  9  1  0
  8 17  1  0
  9 10  2  0
 10 11  1  0
 10 13  1  0
 11 12  2  0
 11 27  1  0
 12 28  1  0
 13 14  1  0
 13 15  1  0
 13 16  1  0
 17 18  1  0
 18 19  2  0
 18 26  1  0
 19 20  1  0
 19 29  1  0
 20 21  2  0
 20 24  1  0
 21 22  1  0
 21 25  1  0
 22 23  1  0
 22 30  1  0
 23 24  2  0
 24 31  1  0
 25 26  2  0
 26 32  1  0
M  END
>  <group_name>  (1) 
JNS

>  <molecule_index>  (1) 
01374

>  <conformer_index>  (1) 
02

>  <method>  (1) 
openff-1.3.0

>  <basis>  (1) 
smirnoff

>  <program>  (1) 
openmm

>  <initial_energy>  (1) 
168.8038870933973 kilocalorie / mole

>  <final_energy>  (1) 
154.67085124325368 kilocalorie / mole

$$$$
