JNS-01448-03
     RDKit          3D

 43 47  0  0  0  0  0  0  0  0999 V2000
   -1.2907    1.8977   -4.3053 F   0  0  0  0  0  0  0  0  0  0  0  0
   -1.4447    0.6689   -3.7298 C   0  0  0  0  0  0  0  0  0  0  0  0
   -2.6536    0.1695   -4.1231 F   0  0  0  0  0  0  0  0  0  0  0  0
   -0.4900   -0.1667   -4.2330 F   0  0  0  0  0  0  0  0  0  0  0  0
   -1.3616    0.7947   -2.2034 C   0  0  0  0  0  0  0  0  0  0  0  0
   -2.4342    1.0241   -1.4637 N   0  0  0  0  0  0  0  0  0  0  0  0
   -2.0053    0.9556   -0.1501 C   0  0  0  0  0  0  0  0  0  0  0  0
   -0.6558    0.6852   -0.0735 C   0  0  0  0  0  0  0  0  0  0  0  0
    0.0191    0.5678    1.0880 N   0  0  0  0  0  0  0  0  0  0  0  0
   -0.6847    0.7170    2.2447 C   0  0  0  0  0  0  0  0  0  0  0  0
   -2.0738    0.9905    2.2155 C   0  0  0  0  0  0  0  0  0  0  0  0
   -2.7530    1.1144    1.0025 C   0  0  0  0  0  0  0  0  0  0  0  0
    0.0117    0.5819    3.6048 C   0  0  0  0  0  0  0  0  0  0  0  0
   -0.6257   -0.3620    4.3587 F   0  0  0  0  0  0  0  0  0  0  0  0
   -0.0506    1.7709    4.2731 F   0  0  0  0  0  0  0  0  0  0  0  0
    1.3249    0.2174    3.4958 F   0  0  0  0  0  0  0  0  0  0  0  0
   -0.2219    0.6156   -1.3860 N   0  0  0  0  0  0  0  0  0  0  0  0
    1.1297    0.5133   -1.7772 C   0  0  0  0  0  0  0  0  0  0  0  0
    1.6571    1.2807   -2.8360 C   0  0  0  0  0  0  0  0  0  0  0  0
    3.0081    1.1615   -3.1697 C   0  0  0  0  0  0  0  0  0  0  0  0
    3.8380    0.3195   -2.4775 C   0  0  0  0  0  0  0  0  0  0  0  0
    5.0930    0.4895   -3.0373 N   0  0  0  0  0  0  0  0  0  0  0  0
    5.0760    1.3863   -4.0662 N   0  0  0  0  0  0  0  0  0  0  0  0
    3.8358    1.8050   -4.1662 C   0  0  0  0  0  0  0  0  0  0  0  0
    3.3627   -0.4583   -1.4157 C   0  0  0  0  0  0  0  0  0  0  0  0
    2.0042   -0.3450   -1.0756 C   0  0  0  0  0  0  0  0  0  0  0  0
    4.2474   -1.3552   -0.6652 C   0  0  0  0  0  0  0  0  0  0  0  0
    4.2041   -1.3812    0.7385 C   0  0  0  0  0  0  0  0  0  0  0  0
    5.0474   -2.2319    1.4621 C   0  0  0  0  0  0  0  0  0  0  0  0
    5.9408   -3.0707    0.7890 C   0  0  0  0  0  0  0  0  0  0  0  0
    5.9865   -3.0610   -0.6085 C   0  0  0  0  0  0  0  0  0  0  0  0
    5.1426   -2.2092   -1.3312 C   0  0  0  0  0  0  0  0  0  0  0  0
   -2.6159    1.1052    3.1496 H   0  0  0  0  0  0  0  0  0  0  0  0
   -3.8178    1.3243    0.9445 H   0  0  0  0  0  0  0  0  0  0  0  0
    1.0462    1.9902   -3.3832 H   0  0  0  0  0  0  0  0  0  0  0  0
    5.9316    0.0339   -2.6742 H   0  0  0  0  0  0  0  0  0  0  0  0
    3.4838    2.5328   -4.8913 H   0  0  0  0  0  0  0  0  0  0  0  0
    1.6255   -0.9536   -0.2600 H   0  0  0  0  0  0  0  0  0  0  0  0
    3.5202   -0.7281    1.2749 H   0  0  0  0  0  0  0  0  0  0  0  0
    5.0062   -2.2381    2.5479 H   0  0  0  0  0  0  0  0  0  0  0  0
    6.5938   -3.7323    1.3515 H   0  0  0  0  0  0  0  0  0  0  0  0
    6.6712   -3.7218   -1.1327 H   0  0  0  0  0  0  0  0  0  0  0  0
    5.1675   -2.2332   -2.4167 H   0  0  0  0  0  0  0  0  0  0  0  0
  1  2  1  0
  2  3  1  0
  2  4  1  0
  2  5  1  0
  5  6  2  0
  5 17  1  0
  6  7  1  0
  7  8  2  0
  7 12  1  0
  8  9  1  0
  8 17  1  0
  9 10  2  0
 10 11  1  0
 10 13  1  0
 11 12  2  0
 11 33  1  0
 12 34  1  0
 13 14  1  0
 13 15  1  0
 13 16  1  0
 17 18  1  0
 18 19  2  0
 18 26  1  0
 19 20  1  0
 19 35  1  0
 20 21  2  0
 20 24  1  0
 21 22  1  0
 21 25  1  0
 22 23  1  0
 22 36  1  0
 23 24  2  0
 24 37  1  0
 25 26  2  0
 25 27  1  0
 26 38  1  0
 27 28  2  0
 27 32  1  0
 28 29  1  0
 28 39  1  0
 29 30  2  0
 29 40  1  0
 30 31  1  0
 30 41  1  0
 31 32  2  0
 31 42  1  0
 32 43  1  0
M  END
>  <group_name>  (1) 
JNS

>  <molecule_index>  (1) 
01448

>  <conformer_index>  (1) 
03

>  <method>  (1) 
openff-1.3.0

>  <basis>  (1) 
smirnoff

>  <program>  (1) 
openmm

>  <initial_energy>  (1) 
218.64682566389945 kilocalorie / mole

>  <final_energy>  (1) 
206.50827792469988 kilocalorie / mole

$$$$
