JNS-01082-08
     RDKit          3D

 43 46  0  0  0  0  0  0  0  0999 V2000
   -1.0669    3.8334    0.5551 C   0  0  0  0  0  0  0  0  0  0  0  0
    0.4135    3.7133    0.1671 C   0  0  2  0  0  0  0  0  0  0  0  0
    0.6842    4.3642   -1.2014 C   0  0  0  0  0  0  0  0  0  0  0  0
    0.0576    3.5370   -2.2985 C   0  0  0  0  0  0  0  0  0  0  0  0
    0.0319    2.1867   -2.1743 C   0  0  0  0  0  0  0  0  0  0  0  0
    0.6252    1.4468   -1.0029 C   0  0  0  0  0  0  0  0  0  0  0  0
    0.8259    2.2969    0.1895 N   0  0  0  0  0  0  0  0  0  0  0  0
    1.2150    1.7192    1.3944 C   0  0  0  0  0  0  0  0  0  0  0  0
    1.1447    2.3683    2.4351 O   0  0  0  0  0  0  0  0  0  0  0  0
    1.6293    0.3167    1.5050 C   0  0  0  0  0  0  0  0  0  0  0  0
    2.7678   -0.1762    0.8537 C   0  0  0  0  0  0  0  0  0  0  0  0
    3.5325    0.6667    0.1084 F   0  0  0  0  0  0  0  0  0  0  0  0
    3.1278   -1.5391    1.0032 C   0  0  0  0  0  0  0  0  0  0  0  0
    2.3960   -2.3856    1.7859 N   0  0  0  0  0  0  0  0  0  0  0  0
    1.3257   -1.8962    2.4358 C   0  0  0  0  0  0  0  0  0  0  0  0
    0.9209   -0.5674    2.3232 C   0  0  0  0  0  0  0  0  0  0  0  0
    4.3667   -2.0557    0.2655 C   0  0  0  0  0  0  0  0  0  0  0  0
    4.5800   -3.3894    0.4715 F   0  0  0  0  0  0  0  0  0  0  0  0
    5.4805   -1.3894    0.6895 F   0  0  0  0  0  0  0  0  0  0  0  0
    4.2235   -1.8663   -1.0794 F   0  0  0  0  0  0  0  0  0  0  0  0
   -0.6850    1.6190   -3.2066 N   0  0  0  0  0  0  0  0  0  0  0  0
   -1.0951    2.5945   -3.9760 N   0  0  0  0  0  0  0  0  0  0  0  0
   -0.6593    3.7835   -3.4654 N   0  0  0  0  0  0  0  0  0  0  0  0
   -0.8902    5.0359   -4.0831 C   0  0  0  0  0  0  0  0  0  0  0  0
   -1.6527    5.0689   -5.1982 N   0  0  0  0  0  0  0  0  0  0  0  0
   -1.8643    6.2448   -5.7894 C   0  0  0  0  0  0  0  0  0  0  0  0
   -1.3289    7.4270   -5.2956 C   0  0  0  0  0  0  0  0  0  0  0  0
   -1.5420    8.6527   -5.9009 O   0  0  0  0  0  0  0  0  0  0  0  0
   -0.5577    7.3186   -4.1473 C   0  0  0  0  0  0  0  0  0  0  0  0
   -0.3383    6.1451   -3.5448 N   0  0  0  0  0  0  0  0  0  0  0  0
   -1.3780    4.8821    0.5438 H   0  0  0  0  0  0  0  0  0  0  0  0
   -1.2260    3.4429    1.5648 H   0  0  0  0  0  0  0  0  0  0  0  0
   -1.7030    3.2726   -0.1364 H   0  0  0  0  0  0  0  0  0  0  0  0
    0.9998    4.2746    0.9036 H   0  0  0  0  0  0  0  0  0  0  0  0
    1.7635    4.4231   -1.3720 H   0  0  0  0  0  0  0  0  0  0  0  0
    0.2928    5.3844   -1.1981 H   0  0  0  0  0  0  0  0  0  0  0  0
    1.5800    1.0337   -1.3366 H   0  0  0  0  0  0  0  0  0  0  0  0
   -0.0395    0.6128   -0.7565 H   0  0  0  0  0  0  0  0  0  0  0  0
    0.7544   -2.5651    3.0732 H   0  0  0  0  0  0  0  0  0  0  0  0
    0.0531   -0.2250    2.8800 H   0  0  0  0  0  0  0  0  0  0  0  0
   -2.4765    6.2711   -6.6861 H   0  0  0  0  0  0  0  0  0  0  0  0
   -2.0906    8.5803   -6.7029 H   0  0  0  0  0  0  0  0  0  0  0  0
   -0.1173    8.2164   -3.7230 H   0  0  0  0  0  0  0  0  0  0  0  0
  1  2  1  0
  1 31  1  0
  1 32  1  0
  1 33  1  0
  2  3  1  0
  2  7  1  0
  2 34  1  1
  3  4  1  0
  3 35  1  0
  3 36  1  0
  4  5  2  0
  4 23  1  0
  5  6  1  0
  5 21  1  0
  6  7  1  0
  6 37  1  0
  6 38  1  0
  7  8  1  0
  8  9  2  0
  8 10  1  0
 10 11  2  0
 10 16  1  0
 11 12  1  0
 11 13  1  0
 13 14  2  0
 13 17  1  0
 14 15  1  0
 15 16  2  0
 15 39  1  0
 16 40  1  0
 17 18  1  0
 17 19  1  0
 17 20  1  0
 21 22  2  0
 22 23  1  0
 23 24  1  0
 24 25  2  0
 24 30  1  0
 25 26  1  0
 26 27  2  0
 26 41  1  0
 27 28  1  0
 27 29  1  0
 28 42  1  0
 29 30  2  0
 29 43  1  0
M  END
>  <group_name>  (1) 
JNS

>  <molecule_index>  (1) 
01082

>  <conformer_index>  (1) 
08

>  <method>  (1) 
openff-1.3.0

>  <basis>  (1) 
smirnoff

>  <program>  (1) 
openmm

>  <initial_energy>  (1) 
113.9953426946541 kilocalorie / mole

>  <final_energy>  (1) 
102.06988802906764 kilocalorie / mole

$$$$
