JNS-01384-02
     RDKit          3D

 36 39  0  0  0  0  0  0  0  0999 V2000
   -0.5837    1.1045   -0.1809 C   0  0  0  0  0  0  0  0  0  0  0  0
   -0.0784   -0.3401   -0.2461 C   0  0  0  0  0  0  0  0  0  0  0  0
    1.4324   -0.4088   -0.1852 C   0  0  0  0  0  0  0  0  0  0  0  0
    2.1695    0.2920   -1.0163 N   0  0  0  0  0  0  0  0  0  0  0  0
    3.4736    0.0815   -0.5999 C   0  0  0  0  0  0  0  0  0  0  0  0
    3.5286   -0.7609    0.4937 C   0  0  0  0  0  0  0  0  0  0  0  0
    4.6743   -1.1341    1.0970 N   0  0  0  0  0  0  0  0  0  0  0  0
    5.8400   -0.6367    0.5947 C   0  0  0  0  0  0  0  0  0  0  0  0
    5.8336    0.2347   -0.5221 C   0  0  0  0  0  0  0  0  0  0  0  0
    4.6359    0.6044   -1.1359 C   0  0  0  0  0  0  0  0  0  0  0  0
    7.1878   -1.0037    1.2290 C   0  0  0  0  0  0  0  0  0  0  0  0
    7.0601   -1.7988    2.3330 F   0  0  0  0  0  0  0  0  0  0  0  0
    7.8466    0.1334    1.6018 F   0  0  0  0  0  0  0  0  0  0  0  0
    7.9625   -1.6599    0.3155 F   0  0  0  0  0  0  0  0  0  0  0  0
    2.2161   -1.1126    0.7438 N   0  0  0  0  0  0  0  0  0  0  0  0
    1.7944   -2.0868    1.6673 C   0  0  0  0  0  0  0  0  0  0  0  0
    0.7955   -3.0258    1.3350 C   0  0  0  0  0  0  0  0  0  0  0  0
    0.3995   -3.9801    2.2728 C   0  0  0  0  0  0  0  0  0  0  0  0
    0.9772   -4.0307    3.5184 C   0  0  0  0  0  0  0  0  0  0  0  0
    0.4175   -5.0538    4.2475 N   0  0  0  0  0  0  0  0  0  0  0  0
   -0.4520   -5.5747    3.4286 C   0  0  0  0  0  0  0  0  0  0  0  0
   -1.2354   -6.6302    3.7500 O   0  0  0  0  0  0  0  0  0  0  0  0
   -0.5283   -4.9741    2.1922 O   0  0  0  0  0  0  0  0  0  0  0  0
    1.9804   -3.1358    3.8744 C   0  0  0  0  0  0  0  0  0  0  0  0
    2.3897   -2.1666    2.9453 C   0  0  0  0  0  0  0  0  0  0  0  0
   -1.6775    1.1219   -0.2073 H   0  0  0  0  0  0  0  0  0  0  0  0
   -0.2479    1.5829    0.7448 H   0  0  0  0  0  0  0  0  0  0  0  0
   -0.2087    1.6833   -1.0312 H   0  0  0  0  0  0  0  0  0  0  0  0
   -0.4141   -0.7973   -1.1813 H   0  0  0  0  0  0  0  0  0  0  0  0
   -0.5215   -0.8900    0.5864 H   0  0  0  0  0  0  0  0  0  0  0  0
    6.7746    0.6187   -0.9049 H   0  0  0  0  0  0  0  0  0  0  0  0
    4.5965    1.2696   -1.9938 H   0  0  0  0  0  0  0  0  0  0  0  0
    0.3387   -3.0459    0.3521 H   0  0  0  0  0  0  0  0  0  0  0  0
   -1.7716   -6.8199    2.9710 H   0  0  0  0  0  0  0  0  0  0  0  0
    2.4315   -3.2025    4.8595 H   0  0  0  0  0  0  0  0  0  0  0  0
    3.1737   -1.4700    3.2294 H   0  0  0  0  0  0  0  0  0  0  0  0
  1  2  1  0
  1 26  1  0
  1 27  1  0
  1 28  1  0
  2  3  1  0
  2 29  1  0
  2 30  1  0
  3  4  2  0
  3 15  1  0
  4  5  1  0
  5  6  2  0
  5 10  1  0
  6  7  1  0
  6 15  1  0
  7  8  2  0
  8  9  1  0
  8 11  1  0
  9 10  2  0
  9 31  1  0
 10 32  1  0
 11 12  1  0
 11 13  1  0
 11 14  1  0
 15 16  1  0
 16 17  2  0
 16 25  1  0
 17 18  1  0
 17 33  1  0
 18 19  2  0
 18 23  1  0
 19 20  1  0
 19 24  1  0
 20 21  2  0
 21 22  1  0
 21 23  1  0
 22 34  1  0
 24 25  2  0
 24 35  1  0
 25 36  1  0
M  END
>  <group_name>  (1) 
JNS

>  <molecule_index>  (1) 
01384

>  <conformer_index>  (1) 
02

>  <method>  (1) 
openff-1.3.0

>  <basis>  (1) 
smirnoff

>  <program>  (1) 
openmm

>  <initial_energy>  (1) 
87.9810615082596 kilocalorie / mole

>  <final_energy>  (1) 
75.92788750294037 kilocalorie / mole

$$$$
