JNS-01565-05
     RDKit          3D

 41 44  0  0  0  0  0  0  0  0999 V2000
   -0.7402   -1.3445   -0.5665 C   0  0  0  0  0  0  0  0  0  0  0  0
   -0.0597   -0.6108    0.5954 C   0  0  0  0  0  0  0  0  0  0  0  0
   -0.1574   -1.4210    1.8938 C   0  0  0  0  0  0  0  0  0  0  0  0
    1.3840   -0.2329    0.2665 C   0  0  0  0  0  0  0  0  0  0  0  0
    2.4260   -1.0917   -0.0833 C   0  0  0  0  0  0  0  0  0  0  0  0
    2.4792   -3.0102   -0.1675 Br  0  0  0  0  0  0  0  0  0  0  0  0
    3.5618   -0.2663   -0.4361 C   0  0  0  0  0  0  0  0  0  0  0  0
    3.1921    1.0570   -0.2899 C   0  0  0  0  0  0  0  0  0  0  0  0
    4.0160    2.0954   -0.5349 N   0  0  0  0  0  0  0  0  0  0  0  0
    5.2797    1.8139   -0.9573 C   0  0  0  0  0  0  0  0  0  0  0  0
    5.7035    0.4751   -1.1262 C   0  0  0  0  0  0  0  0  0  0  0  0
    4.8415   -0.5883   -0.8645 C   0  0  0  0  0  0  0  0  0  0  0  0
    6.2711    2.9428   -1.2679 C   0  0  0  0  0  0  0  0  0  0  0  0
    7.3404    2.8633   -0.4223 F   0  0  0  0  0  0  0  0  0  0  0  0
    5.7168    4.1862   -1.1434 F   0  0  0  0  0  0  0  0  0  0  0  0
    6.7321    2.8143   -2.5473 F   0  0  0  0  0  0  0  0  0  0  0  0
    1.8739    1.0908    0.1768 N   0  0  0  0  0  0  0  0  0  0  0  0
    1.2217    2.2674    0.6034 C   0  0  0  0  0  0  0  0  0  0  0  0
    1.3007    3.4406   -0.1605 C   0  0  0  0  0  0  0  0  0  0  0  0
    0.6487    4.5637    0.3290 C   0  0  0  0  0  0  0  0  0  0  0  0
   -0.0317    4.4854    1.5258 C   0  0  0  0  0  0  0  0  0  0  0  0
   -0.6018    5.6735    1.8583 N   0  0  0  0  0  0  0  0  0  0  0  0
   -0.1798    6.5931    0.9484 C   0  0  0  0  0  0  0  0  0  0  0  0
   -0.2719    7.7905    1.1730 O   0  0  0  0  0  0  0  0  0  0  0  0
    0.5876    5.9674   -0.2145 C   0  0  0  0  0  0  0  0  0  0  0  0
   -0.1110    3.4139    2.3047 N   0  0  0  0  0  0  0  0  0  0  0  0
    0.5249    2.3200    1.8344 C   0  0  0  0  0  0  0  0  0  0  0  0
   -1.8022   -1.4916   -0.3471 H   0  0  0  0  0  0  0  0  0  0  0  0
   -0.2962   -2.3260   -0.7434 H   0  0  0  0  0  0  0  0  0  0  0  0
   -0.6576   -0.7529   -1.4836 H   0  0  0  0  0  0  0  0  0  0  0  0
   -0.6401    0.3034    0.7362 H   0  0  0  0  0  0  0  0  0  0  0  0
    0.3309   -2.3933    1.7952 H   0  0  0  0  0  0  0  0  0  0  0  0
   -1.2067   -1.5927    2.1527 H   0  0  0  0  0  0  0  0  0  0  0  0
    0.3164   -0.8799    2.7180 H   0  0  0  0  0  0  0  0  0  0  0  0
    6.7161    0.2750   -1.4643 H   0  0  0  0  0  0  0  0  0  0  0  0
    5.1551   -1.6215   -0.9895 H   0  0  0  0  0  0  0  0  0  0  0  0
    1.8520    3.4785   -1.0977 H   0  0  0  0  0  0  0  0  0  0  0  0
   -0.6753    5.9406    2.8299 H   0  0  0  0  0  0  0  0  0  0  0  0
    1.5780    6.4178   -0.3221 H   0  0  0  0  0  0  0  0  0  0  0  0
    0.0134    6.0286   -1.1422 H   0  0  0  0  0  0  0  0  0  0  0  0
    0.5035    1.4337    2.4600 H   0  0  0  0  0  0  0  0  0  0  0  0
  1  2  1  0
  1 28  1  0
  1 29  1  0
  1 30  1  0
  2  3  1  0
  2  4  1  0
  2 31  1  0
  3 32  1  0
  3 33  1  0
  3 34  1  0
  4  5  2  0
  4 17  1  0
  5  6  1  0
  5  7  1  0
  7  8  2  0
  7 12  1  0
  8  9  1  0
  8 17  1  0
  9 10  2  0
 10 11  1  0
 10 13  1  0
 11 12  2  0
 11 35  1  0
 12 36  1  0
 13 14  1  0
 13 15  1  0
 13 16  1  0
 17 18  1  0
 18 19  2  0
 18 27  1  0
 19 20  1  0
 19 37  1  0
 20 21  2  0
 20 25  1  0
 21 22  1  0
 21 26  1  0
 22 23  1  0
 22 38  1  0
 23 24  2  0
 23 25  1  0
 25 39  1  0
 25 40  1  0
 26 27  2  0
 27 41  1  0
M  END
>  <group_name>  (1) 
JNS

>  <molecule_index>  (1) 
01565

>  <conformer_index>  (1) 
05

>  <method>  (1) 
openff-1.3.0

>  <basis>  (1) 
smirnoff

>  <program>  (1) 
openmm

>  <initial_energy>  (1) 
57.93416564142648 kilocalorie / mole

>  <final_energy>  (1) 
46.66228502134223 kilocalorie / mole

$$$$
