JNS-01358-02
     RDKit          3D

 41 45  0  0  0  0  0  0  0  0999 V2000
   -2.6423   -2.6408   -0.3500 F   0  0  0  0  0  0  0  0  0  0  0  0
   -2.0887   -1.4052   -0.3653 C   0  0  0  0  0  0  0  0  0  0  0  0
   -2.8881   -0.3401   -0.5513 N   0  0  0  0  0  0  0  0  0  0  0  0
   -2.3090    0.8706   -0.5745 C   0  0  0  0  0  0  0  0  0  0  0  0
   -0.9378    1.0656   -0.3947 C   0  0  0  0  0  0  0  0  0  0  0  0
   -0.0932   -0.0268   -0.1734 C   0  0  0  0  0  0  0  0  0  0  0  0
   -0.7103   -1.2813   -0.1797 C   0  0  0  0  0  0  0  0  0  0  0  0
    1.3681    0.1148    0.0115 C   0  0  0  0  0  0  0  0  0  0  0  0
    2.1899   -0.8336   -0.3807 N   0  0  0  0  0  0  0  0  0  0  0  0
    3.4574   -0.3167   -0.1719 C   0  0  0  0  0  0  0  0  0  0  0  0
    3.4052    0.9547    0.3653 C   0  0  0  0  0  0  0  0  0  0  0  0
    4.4964    1.6851    0.6696 N   0  0  0  0  0  0  0  0  0  0  0  0
    5.7157    1.1294    0.4188 C   0  0  0  0  0  0  0  0  0  0  0  0
    5.8188   -0.1693   -0.1365 C   0  0  0  0  0  0  0  0  0  0  0  0
    4.6765   -0.9118   -0.4393 C   0  0  0  0  0  0  0  0  0  0  0  0
    7.0060    1.8992    0.7283 C   0  0  0  0  0  0  0  0  0  0  0  0
    6.7736    3.1564    1.2113 F   0  0  0  0  0  0  0  0  0  0  0  0
    7.7571    2.0147   -0.4066 F   0  0  0  0  0  0  0  0  0  0  0  0
    7.7401    1.2140    1.6538 F   0  0  0  0  0  0  0  0  0  0  0  0
    2.0594    1.2233    0.5318 N   0  0  0  0  0  0  0  0  0  0  0  0
    1.5337    2.2739    1.3102 C   0  0  0  0  0  0  0  0  0  0  0  0
    0.4569    2.0534    2.1953 C   0  0  0  0  0  0  0  0  0  0  0  0
   -0.0501    3.1122    2.9533 C   0  0  0  0  0  0  0  0  0  0  0  0
    0.5045    4.3764    2.8590 C   0  0  0  0  0  0  0  0  0  0  0  0
   -0.1551    5.2410    3.7077 N   0  0  0  0  0  0  0  0  0  0  0  0
   -1.0608    4.5264    4.4371 C   0  0  0  0  0  0  0  0  0  0  0  0
   -1.5859    4.9890    5.4398 O   0  0  0  0  0  0  0  0  0  0  0  0
   -1.1605    3.0784    3.9720 C   0  0  0  0  0  0  0  0  0  0  0  0
    1.5833    4.6196    2.0159 C   0  0  0  0  0  0  0  0  0  0  0  0
    2.0962    3.5670    1.2440 C   0  0  0  0  0  0  0  0  0  0  0  0
   -2.9388    1.7396   -0.7421 H   0  0  0  0  0  0  0  0  0  0  0  0
   -0.5488    2.0779   -0.4452 H   0  0  0  0  0  0  0  0  0  0  0  0
   -0.1275   -2.1862   -0.0408 H   0  0  0  0  0  0  0  0  0  0  0  0
    6.8008   -0.5919   -0.3281 H   0  0  0  0  0  0  0  0  0  0  0  0
    4.7214   -1.9103   -0.8653 H   0  0  0  0  0  0  0  0  0  0  0  0
    0.0251    1.0641    2.3156 H   0  0  0  0  0  0  0  0  0  0  0  0
    0.2988    6.0336    4.1487 H   0  0  0  0  0  0  0  0  0  0  0  0
   -2.1329    2.8815    3.5153 H   0  0  0  0  0  0  0  0  0  0  0  0
   -0.9517    2.3883    4.7928 H   0  0  0  0  0  0  0  0  0  0  0  0
    2.0232    5.6103    1.9541 H   0  0  0  0  0  0  0  0  0  0  0  0
    2.9361    3.7659    0.5834 H   0  0  0  0  0  0  0  0  0  0  0  0
  1  2  1  0
  2  3  2  0
  2  7  1  0
  3  4  1  0
  4  5  2  0
  4 31  1  0
  5  6  1  0
  5 32  1  0
  6  7  2  0
  6  8  1  0
  7 33  1  0
  8  9  2  0
  8 20  1  0
  9 10  1  0
 10 11  2  0
 10 15  1  0
 11 12  1  0
 11 20  1  0
 12 13  2  0
 13 14  1  0
 13 16  1  0
 14 15  2  0
 14 34  1  0
 15 35  1  0
 16 17  1  0
 16 18  1  0
 16 19  1  0
 20 21  1  0
 21 22  2  0
 21 30  1  0
 22 23  1  0
 22 36  1  0
 23 24  2  0
 23 28  1  0
 24 25  1  0
 24 29  1  0
 25 26  1  0
 25 37  1  0
 26 27  2  0
 26 28  1  0
 28 38  1  0
 28 39  1  0
 29 30  2  0
 29 40  1  0
 30 41  1  0
M  END
>  <group_name>  (1) 
JNS

>  <molecule_index>  (1) 
01358

>  <conformer_index>  (1) 
02

>  <method>  (1) 
openff-1.3.0

>  <basis>  (1) 
smirnoff

>  <program>  (1) 
openmm

>  <initial_energy>  (1) 
98.23768725936844 kilocalorie / mole

>  <final_energy>  (1) 
85.89564246944765 kilocalorie / mole

$$$$
