JNS-02157-03
     RDKit          3D

 42 45  0  0  0  0  0  0  0  0999 V2000
   -1.2252    3.6175   -0.5988 C   0  0  0  0  0  0  0  0  0  0  0  0
   -1.4815    2.2739    0.0937 C   0  0  2  0  0  0  0  0  0  0  0  0
   -2.3187    2.4299    1.3745 C   0  0  0  0  0  0  0  0  0  0  0  0
   -1.5054    3.0660    2.4804 C   0  0  0  0  0  0  0  0  0  0  0  0
   -0.1525    2.9410    2.4996 C   0  0  0  0  0  0  0  0  0  0  0  0
    0.6469    2.1726    1.4772 C   0  0  0  0  0  0  0  0  0  0  0  0
   -0.1979    1.6188    0.3999 N   0  0  0  0  0  0  0  0  0  0  0  0
    0.1575    0.4307   -0.2327 C   0  0  0  0  0  0  0  0  0  0  0  0
   -0.6500   -0.1467   -0.9557 O   0  0  0  0  0  0  0  0  0  0  0  0
    1.4568   -0.2228   -0.0110 C   0  0  0  0  0  0  0  0  0  0  0  0
    1.5053   -1.4824    0.5865 C   0  0  0  0  0  0  0  0  0  0  0  0
    2.7274   -2.1082    0.8052 C   0  0  0  0  0  0  0  0  0  0  0  0
    3.8986   -1.5517    0.4594 N   0  0  0  0  0  0  0  0  0  0  0  0
    3.8958   -0.3345   -0.1561 C   0  0  0  0  0  0  0  0  0  0  0  0
    2.6753    0.3533   -0.4132 C   0  0  0  0  0  0  0  0  0  0  0  0
    2.6566    1.8854   -1.2738 Cl  0  0  0  0  0  0  0  0  0  0  0  0
    5.2370    0.2918   -0.5728 C   0  0  0  0  0  0  0  0  0  0  0  0
    5.2923    0.4525   -1.9280 F   0  0  0  0  0  0  0  0  0  0  0  0
    6.3071   -0.4801   -0.2165 F   0  0  0  0  0  0  0  0  0  0  0  0
    5.4041    1.5061    0.0301 F   0  0  0  0  0  0  0  0  0  0  0  0
    0.3845    3.6651    3.5429 N   0  0  0  0  0  0  0  0  0  0  0  0
   -0.6102    4.2393    4.1697 N   0  0  0  0  0  0  0  0  0  0  0  0
   -1.7833    3.8985    3.5602 N   0  0  0  0  0  0  0  0  0  0  0  0
   -3.0567    4.3105    4.0207 C   0  0  0  0  0  0  0  0  0  0  0  0
   -4.1628    3.8391    3.4034 N   0  0  0  0  0  0  0  0  0  0  0  0
   -5.3567    4.2323    3.8592 C   0  0  0  0  0  0  0  0  0  0  0  0
   -5.4827    5.0965    4.9281 C   0  0  0  0  0  0  0  0  0  0  0  0
   -6.7010    5.4902    5.3826 F   0  0  0  0  0  0  0  0  0  0  0  0
   -4.3149    5.5420    5.5141 C   0  0  0  0  0  0  0  0  0  0  0  0
   -3.1155    5.1578    5.0710 N   0  0  0  0  0  0  0  0  0  0  0  0
   -0.6563    3.4589   -1.5201 H   0  0  0  0  0  0  0  0  0  0  0  0
   -2.1744    4.0950   -0.8593 H   0  0  0  0  0  0  0  0  0  0  0  0
   -0.6606    4.2982    0.0453 H   0  0  0  0  0  0  0  0  0  0  0  0
   -2.0739    1.6697   -0.6014 H   0  0  0  0  0  0  0  0  0  0  0  0
   -2.6540    1.4432    1.7082 H   0  0  0  0  0  0  0  0  0  0  0  0
   -3.2082    3.0249    1.1510 H   0  0  0  0  0  0  0  0  0  0  0  0
    1.3998    2.8442    1.0549 H   0  0  0  0  0  0  0  0  0  0  0  0
    1.1695    1.3721    2.0094 H   0  0  0  0  0  0  0  0  0  0  0  0
    0.5893   -1.9851    0.8831 H   0  0  0  0  0  0  0  0  0  0  0  0
    2.7370   -3.0861    1.2779 H   0  0  0  0  0  0  0  0  0  0  0  0
   -6.2546    3.8609    3.3733 H   0  0  0  0  0  0  0  0  0  0  0  0
   -4.3719    6.2233    6.3584 H   0  0  0  0  0  0  0  0  0  0  0  0
  1  2  1  0
  1 31  1  0
  1 32  1  0
  1 33  1  0
  2  3  1  0
  2  7  1  0
  2 34  1  6
  3  4  1  0
  3 35  1  0
  3 36  1  0
  4  5  2  0
  4 23  1  0
  5  6  1  0
  5 21  1  0
  6  7  1  0
  6 37  1  0
  6 38  1  0
  7  8  1  0
  8  9  2  0
  8 10  1  0
 10 11  2  0
 10 15  1  0
 11 12  1  0
 11 39  1  0
 12 13  2  0
 12 40  1  0
 13 14  1  0
 14 15  2  0
 14 17  1  0
 15 16  1  0
 17 18  1  0
 17 19  1  0
 17 20  1  0
 21 22  2  0
 22 23  1  0
 23 24  1  0
 24 25  2  0
 24 30  1  0
 25 26  1  0
 26 27  2  0
 26 41  1  0
 27 28  1  0
 27 29  1  0
 29 30  2  0
 29 42  1  0
M  END
>  <group_name>  (1) 
JNS

>  <molecule_index>  (1) 
02157

>  <conformer_index>  (1) 
03

>  <method>  (1) 
openff-1.3.0

>  <basis>  (1) 
smirnoff

>  <program>  (1) 
openmm

>  <initial_energy>  (1) 
89.97797255217618 kilocalorie / mole

>  <final_energy>  (1) 
78.83471533662944 kilocalorie / mole

$$$$
