JNS-01845-00
     RDKit          3D

 36 39  0  0  0  0  0  0  0  0999 V2000
    0.1321   -0.1370    0.8823 C   0  0  0  0  0  0  0  0  0  0  0  0
    1.6125   -0.2684    0.6282 C   0  0  0  0  0  0  0  0  0  0  0  0
    2.4678    0.8126    0.6423 C   0  0  0  0  0  0  0  0  0  0  0  0
    3.7634    0.3350    0.2229 C   0  0  0  0  0  0  0  0  0  0  0  0
    3.6570   -1.0214   -0.0495 C   0  0  0  0  0  0  0  0  0  0  0  0
    4.6977   -1.7738   -0.4581 N   0  0  0  0  0  0  0  0  0  0  0  0
    5.9032   -1.1590   -0.6167 C   0  0  0  0  0  0  0  0  0  0  0  0
    6.0511    0.2242   -0.3569 C   0  0  0  0  0  0  0  0  0  0  0  0
    4.9715    0.9938    0.0706 C   0  0  0  0  0  0  0  0  0  0  0  0
    7.1311   -1.9500   -1.0871 C   0  0  0  0  0  0  0  0  0  0  0  0
    8.1010   -1.9106   -0.1262 F   0  0  0  0  0  0  0  0  0  0  0  0
    6.8508   -3.2598   -1.3586 F   0  0  0  0  0  0  0  0  0  0  0  0
    7.6384   -1.3834   -2.2220 F   0  0  0  0  0  0  0  0  0  0  0  0
    2.3332   -1.4059    0.2109 N   0  0  0  0  0  0  0  0  0  0  0  0
    1.8312   -2.7200    0.1119 C   0  0  0  0  0  0  0  0  0  0  0  0
    0.8969   -3.2106    1.0468 C   0  0  0  0  0  0  0  0  0  0  0  0
    0.4073   -4.5137    0.9292 C   0  0  0  0  0  0  0  0  0  0  0  0
    0.8357   -5.3401   -0.0964 C   0  0  0  0  0  0  0  0  0  0  0  0
    0.2105   -6.5699    0.0161 N   0  0  0  0  0  0  0  0  0  0  0  0
   -0.5277   -6.5885    1.1632 C   0  0  0  0  0  0  0  0  0  0  0  0
   -0.9761   -7.6264    1.6301 O   0  0  0  0  0  0  0  0  0  0  0  0
   -0.5543   -5.2263    1.8456 C   0  0  0  0  0  0  0  0  0  0  0  0
    1.7773   -4.8956   -1.0278 C   0  0  0  0  0  0  0  0  0  0  0  0
    2.2070   -5.7108   -2.0247 F   0  0  0  0  0  0  0  0  0  0  0  0
    2.2671   -3.5878   -0.9148 C   0  0  0  0  0  0  0  0  0  0  0  0
   -0.4266   -0.8638    0.2853 H   0  0  0  0  0  0  0  0  0  0  0  0
   -0.2110    0.8636    0.6030 H   0  0  0  0  0  0  0  0  0  0  0  0
   -0.0837   -0.2953    1.9427 H   0  0  0  0  0  0  0  0  0  0  0  0
    2.2091    1.8385    0.8894 H   0  0  0  0  0  0  0  0  0  0  0  0
    7.0228    0.6899   -0.4923 H   0  0  0  0  0  0  0  0  0  0  0  0
    5.0683    2.0565    0.2769 H   0  0  0  0  0  0  0  0  0  0  0  0
    0.5729   -2.5987    1.8817 H   0  0  0  0  0  0  0  0  0  0  0  0
    0.6205   -7.4330   -0.3260 H   0  0  0  0  0  0  0  0  0  0  0  0
   -0.1791   -5.2938    2.8693 H   0  0  0  0  0  0  0  0  0  0  0  0
   -1.5554   -4.7914    1.8086 H   0  0  0  0  0  0  0  0  0  0  0  0
    2.9912   -3.2547   -1.6514 H   0  0  0  0  0  0  0  0  0  0  0  0
  1  2  1  0
  1 26  1  0
  1 27  1  0
  1 28  1  0
  2  3  2  0
  2 14  1  0
  3  4  1  0
  3 29  1  0
  4  5  2  0
  4  9  1  0
  5  6  1  0
  5 14  1  0
  6  7  2  0
  7  8  1  0
  7 10  1  0
  8  9  2  0
  8 30  1  0
  9 31  1  0
 10 11  1  0
 10 12  1  0
 10 13  1  0
 14 15  1  0
 15 16  2  0
 15 25  1  0
 16 17  1  0
 16 32  1  0
 17 18  2  0
 17 22  1  0
 18 19  1  0
 18 23  1  0
 19 20  1  0
 19 33  1  0
 20 21  2  0
 20 22  1  0
 22 34  1  0
 22 35  1  0
 23 24  1  0
 23 25  2  0
 25 36  1  0
M  END
>  <group_name>  (1) 
JNS

>  <molecule_index>  (1) 
01845

>  <conformer_index>  (1) 
00

>  <method>  (1) 
openff-1.3.0

>  <basis>  (1) 
smirnoff

>  <program>  (1) 
openmm

>  <initial_energy>  (1) 
112.5078231292398 kilocalorie / mole

>  <final_energy>  (1) 
100.91847004890298 kilocalorie / mole

$$$$
