JNS-02239-05
     RDKit          3D

 53 57  0  0  0  0  0  0  0  0999 V2000
   -3.5140    0.1920   -0.9511 C   0  0  0  0  0  0  0  0  0  0  0  0
   -2.0550    0.2673   -0.9927 N   0  0  0  0  0  0  0  0  0  0  0  0
   -1.2252   -0.0365    0.0722 C   0  0  0  0  0  0  0  0  0  0  0  0
    0.0541    0.1351   -0.3776 C   0  0  0  0  0  0  0  0  0  0  0  0
   -0.0858    0.5155   -1.7676 C   0  0  0  0  0  0  0  0  0  0  0  0
   -1.3489    0.5975   -2.1021 N   0  0  0  0  0  0  0  0  0  0  0  0
    1.2712   -0.1031    0.3970 C   0  0  0  0  0  0  0  0  0  0  0  0
    2.4625    0.5979    0.1976 C   0  0  0  0  0  0  0  0  0  0  0  0
    2.5952    1.7506   -0.7967 C   0  0  0  0  0  0  0  0  0  0  0  0
    3.7637    2.6836   -0.4392 C   0  0  1  0  0  0  0  0  0  0  0  0
    3.4692    3.4274    0.8952 C   0  0  0  0  0  0  0  0  0  0  0  0
    4.6255    3.3443    1.9081 C   0  0  0  0  0  0  0  0  0  0  0  0
    5.1668    1.9053    2.0927 C   0  0  0  0  0  0  0  0  0  0  0  0
    4.8909    0.9731    0.8897 C   0  0  2  0  0  0  0  0  0  0  0  0
    4.9389    1.8212   -0.3057 N   0  0  0  0  0  0  0  0  0  0  0  0
    6.1452    2.0670   -0.9536 C   0  0  0  0  0  0  0  0  0  0  0  0
    7.1667    1.5358   -0.5241 O   0  0  0  0  0  0  0  0  0  0  0  0
    6.3048    3.0318   -2.0507 C   0  0  0  0  0  0  0  0  0  0  0  0
    7.2907    4.0199   -1.9730 C   0  0  0  0  0  0  0  0  0  0  0  0
    7.4537    4.9351   -3.0104 C   0  0  0  0  0  0  0  0  0  0  0  0
    6.6939    4.9172   -4.1188 N   0  0  0  0  0  0  0  0  0  0  0  0
    5.7453    3.9433   -4.2434 C   0  0  0  0  0  0  0  0  0  0  0  0
    5.5400    2.9791   -3.2246 C   0  0  0  0  0  0  0  0  0  0  0  0
    4.6270    1.9864   -3.3896 F   0  0  0  0  0  0  0  0  0  0  0  0
    4.8735    3.8791   -5.5017 C   0  0  0  0  0  0  0  0  0  0  0  0
    5.0713    2.6969   -6.1553 F   0  0  0  0  0  0  0  0  0  0  0  0
    3.5545    3.9818   -5.1613 F   0  0  0  0  0  0  0  0  0  0  0  0
    5.1486    4.8885   -6.3803 F   0  0  0  0  0  0  0  0  0  0  0  0
    3.5471    0.2579    1.0141 C   0  0  0  0  0  0  0  0  0  0  0  0
    3.4441   -0.7126    1.9228 N   0  0  0  0  0  0  0  0  0  0  0  0
    2.2689   -1.3299    2.0486 C   0  0  0  0  0  0  0  0  0  0  0  0
    2.1497   -2.3854    3.1022 C   0  0  0  0  0  0  0  0  0  0  0  0
    1.1792   -1.0382    1.3408 N   0  0  0  0  0  0  0  0  0  0  0  0
   -3.9184    0.2584   -1.9653 H   0  0  0  0  0  0  0  0  0  0  0  0
   -3.8279   -0.7601   -0.5146 H   0  0  0  0  0  0  0  0  0  0  0  0
   -3.9140    1.0180   -0.3570 H   0  0  0  0  0  0  0  0  0  0  0  0
   -1.5235   -0.3573    1.0668 H   0  0  0  0  0  0  0  0  0  0  0  0
    0.7321    0.6899   -2.4586 H   0  0  0  0  0  0  0  0  0  0  0  0
    2.7637    1.3339   -1.7931 H   0  0  0  0  0  0  0  0  0  0  0  0
    1.6750    2.3427   -0.8274 H   0  0  0  0  0  0  0  0  0  0  0  0
    3.8907    3.4299   -1.2279 H   0  0  0  0  0  0  0  0  0  0  0  0
    2.5769    3.0126    1.3754 H   0  0  0  0  0  0  0  0  0  0  0  0
    3.2428    4.4763    0.6806 H   0  0  0  0  0  0  0  0  0  0  0  0
    4.3109    3.7513    2.8743 H   0  0  0  0  0  0  0  0  0  0  0  0
    5.4423    3.9756    1.5424 H   0  0  0  0  0  0  0  0  0  0  0  0
    6.2500    1.9745    2.2363 H   0  0  0  0  0  0  0  0  0  0  0  0
    4.7580    1.4587    3.0049 H   0  0  0  0  0  0  0  0  0  0  0  0
    5.6580    0.1919    0.8507 H   0  0  0  0  0  0  0  0  0  0  0  0
    7.9396    4.0784   -1.1034 H   0  0  0  0  0  0  0  0  0  0  0  0
    8.2233    5.6963   -2.9205 H   0  0  0  0  0  0  0  0  0  0  0  0
    1.1290   -2.4156    3.4926 H   0  0  0  0  0  0  0  0  0  0  0  0
    2.3964   -3.3586    2.6712 H   0  0  0  0  0  0  0  0  0  0  0  0
    2.8359   -2.1752    3.9269 H   0  0  0  0  0  0  0  0  0  0  0  0
  1  2  1  0
  1 34  1  0
  1 35  1  0
  1 36  1  0
  2  3  1  0
  2  6  1  0
  3  4  2  0
  3 37  1  0
  4  5  1  0
  4  7  1  0
  5  6  2  0
  5 38  1  0
  7  8  1  0
  7 33  2  0
  8  9  1  0
  8 29  2  0
  9 10  1  0
  9 39  1  0
  9 40  1  0
 10 11  1  0
 10 15  1  0
 10 41  1  6
 11 12  1  0
 11 42  1  0
 11 43  1  0
 12 13  1  0
 12 44  1  0
 12 45  1  0
 13 14  1  0
 13 46  1  0
 13 47  1  0
 14 15  1  0
 14 29  1  0
 14 48  1  6
 15 16  1  0
 16 17  2  0
 16 18  1  0
 18 19  2  0
 18 23  1  0
 19 20  1  0
 19 49  1  0
 20 21  2  0
 20 50  1  0
 21 22  1  0
 22 23  2  0
 22 25  1  0
 23 24  1  0
 25 26  1  0
 25 27  1  0
 25 28  1  0
 29 30  1  0
 30 31  2  0
 31 32  1  0
 31 33  1  0
 32 51  1  0
 32 52  1  0
 32 53  1  0
M  END
>  <group_name>  (1) 
JNS

>  <molecule_index>  (1) 
02239

>  <conformer_index>  (1) 
05

>  <method>  (1) 
openff-1.3.0

>  <basis>  (1) 
smirnoff

>  <program>  (1) 
openmm

>  <initial_energy>  (1) 
28.59042458995173 kilocalorie / mole

>  <final_energy>  (1) 
16.75139277390005 kilocalorie / mole

$$$$
