JNS-01681-02
     RDKit          3D

 30 33  0  0  0  0  0  0  0  0999 V2000
   -0.4319    1.4227   -0.6129 F   0  0  0  0  0  0  0  0  0  0  0  0
    0.5728    1.7703    0.2442 C   0  0  0  0  0  0  0  0  0  0  0  0
    0.0674    1.7796    1.5143 F   0  0  0  0  0  0  0  0  0  0  0  0
    0.9695    3.0409   -0.0619 F   0  0  0  0  0  0  0  0  0  0  0  0
    1.7530    0.8041    0.0781 C   0  0  0  0  0  0  0  0  0  0  0  0
    2.1726    0.0325    1.1208 N   0  0  0  0  0  0  0  0  0  0  0  0
    3.2201   -0.7920    0.9156 C   0  0  0  0  0  0  0  0  0  0  0  0
    3.8737   -0.8921   -0.3021 C   0  0  0  0  0  0  0  0  0  0  0  0
    3.4767   -0.1254   -1.3819 C   0  0  0  0  0  0  0  0  0  0  0  0
    2.3985    0.7352   -1.1792 C   0  0  0  0  0  0  0  0  0  0  0  0
    4.9026   -1.8170   -0.2652 N   0  0  0  0  0  0  0  0  0  0  0  0
    4.8754   -2.2793    0.9614 C   0  0  0  0  0  0  0  0  0  0  0  0
    3.8709   -1.6974    1.7426 N   0  0  0  0  0  0  0  0  0  0  0  0
    3.6054   -2.0082    3.0973 C   0  0  0  0  0  0  0  0  0  0  0  0
    4.1767   -3.1569    3.6936 C   0  0  0  0  0  0  0  0  0  0  0  0
    3.9142   -3.4572    5.0339 C   0  0  0  0  0  0  0  0  0  0  0  0
    3.1065   -2.6568    5.7939 C   0  0  0  0  0  0  0  0  0  0  0  0
    3.0638   -3.2423    7.0482 N   0  0  0  0  0  0  0  0  0  0  0  0
    3.8147   -4.3806    7.1007 N   0  0  0  0  0  0  0  0  0  0  0  0
    4.3351   -4.5334    5.9052 C   0  0  0  0  0  0  0  0  0  0  0  0
    2.5238   -1.5158    5.2484 C   0  0  0  0  0  0  0  0  0  0  0  0
    2.7750   -1.1949    3.9062 C   0  0  0  0  0  0  0  0  0  0  0  0
    3.9924   -0.2064   -2.3347 H   0  0  0  0  0  0  0  0  0  0  0  0
    2.0476    1.3592   -1.9958 H   0  0  0  0  0  0  0  0  0  0  0  0
    5.5754   -3.0276    1.3182 H   0  0  0  0  0  0  0  0  0  0  0  0
    4.8128   -3.8382    3.1398 H   0  0  0  0  0  0  0  0  0  0  0  0
    2.5311   -2.8671    7.8337 H   0  0  0  0  0  0  0  0  0  0  0  0
    4.9880   -5.3505    5.6133 H   0  0  0  0  0  0  0  0  0  0  0  0
    1.8836   -0.8782    5.8505 H   0  0  0  0  0  0  0  0  0  0  0  0
    2.3152   -0.2916    3.5225 H   0  0  0  0  0  0  0  0  0  0  0  0
  1  2  1  0
  2  3  1  0
  2  4  1  0
  2  5  1  0
  5  6  2  0
  5 10  1  0
  6  7  1  0
  7  8  2  0
  7 13  1  0
  8  9  1  0
  8 11  1  0
  9 10  2  0
  9 23  1  0
 10 24  1  0
 11 12  2  0
 12 13  1  0
 12 25  1  0
 13 14  1  0
 14 15  2  0
 14 22  1  0
 15 16  1  0
 15 26  1  0
 16 17  2  0
 16 20  1  0
 17 18  1  0
 17 21  1  0
 18 19  1  0
 18 27  1  0
 19 20  2  0
 20 28  1  0
 21 22  2  0
 21 29  1  0
 22 30  1  0
M  END
>  <group_name>  (1) 
JNS

>  <molecule_index>  (1) 
01681

>  <conformer_index>  (1) 
02

>  <method>  (1) 
openff-1.3.0

>  <basis>  (1) 
smirnoff

>  <program>  (1) 
openmm

>  <initial_energy>  (1) 
148.64252365577732 kilocalorie / mole

>  <final_energy>  (1) 
138.08343119278572 kilocalorie / mole

$$$$
