JNS-01596-08
     RDKit          3D

 37 41  0  0  0  0  0  0  0  0999 V2000
   -2.7327   -1.3550    3.3033 F   0  0  0  0  0  0  0  0  0  0  0  0
   -3.0388   -1.0234    2.0238 C   0  0  0  0  0  0  0  0  0  0  0  0
   -4.2991   -0.9761    1.4540 N   0  0  0  0  0  0  0  0  0  0  0  0
   -4.2481   -0.6077    0.1449 N   0  0  0  0  0  0  0  0  0  0  0  0
   -2.9741   -0.4276   -0.0927 C   0  0  0  0  0  0  0  0  0  0  0  0
   -2.1890   -0.6676    1.0224 C   0  0  0  0  0  0  0  0  0  0  0  0
   -0.8000   -0.5265    0.9700 C   0  0  0  0  0  0  0  0  0  0  0  0
   -0.1762   -0.1436   -0.2353 C   0  0  0  0  0  0  0  0  0  0  0  0
   -0.9946    0.1114   -1.3596 C   0  0  0  0  0  0  0  0  0  0  0  0
   -2.3889   -0.0332   -1.2926 C   0  0  0  0  0  0  0  0  0  0  0  0
    1.2244   -0.0015   -0.3033 N   0  0  0  0  0  0  0  0  0  0  0  0
    2.0612   -0.2827   -1.3945 C   0  0  0  0  0  0  0  0  0  0  0  0
    3.3069    0.0648   -1.1631 N   0  0  0  0  0  0  0  0  0  0  0  0
    3.3019    0.5563    0.1310 C   0  0  0  0  0  0  0  0  0  0  0  0
    2.0383    0.5115    0.6893 C   0  0  0  0  0  0  0  0  0  0  0  0
    1.7570    0.9375    1.9373 N   0  0  0  0  0  0  0  0  0  0  0  0
    2.7873    1.4281    2.6830 C   0  0  0  0  0  0  0  0  0  0  0  0
    4.0999    1.4873    2.1543 C   0  0  0  0  0  0  0  0  0  0  0  0
    4.3703    1.0473    0.8579 C   0  0  0  0  0  0  0  0  0  0  0  0
    2.5525    1.9252    4.1152 C   0  0  0  0  0  0  0  0  0  0  0  0
    3.3535    1.2349    4.9801 F   0  0  0  0  0  0  0  0  0  0  0  0
    2.8801    3.2483    4.2029 F   0  0  0  0  0  0  0  0  0  0  0  0
    1.2584    1.7772    4.5285 F   0  0  0  0  0  0  0  0  0  0  0  0
    1.6462   -0.9482   -2.6909 C   0  0  0  0  0  0  0  0  0  0  0  0
    2.7034   -1.3653   -3.7158 C   0  0  0  0  0  0  0  0  0  0  0  0
    1.7973   -0.1761   -4.0010 C   0  0  0  0  0  0  0  0  0  0  0  0
   -5.1543   -1.1843    1.9631 H   0  0  0  0  0  0  0  0  0  0  0  0
   -0.2180   -0.7269    1.8647 H   0  0  0  0  0  0  0  0  0  0  0  0
   -0.5620    0.4540   -2.2929 H   0  0  0  0  0  0  0  0  0  0  0  0
   -3.0144    0.1673   -2.1571 H   0  0  0  0  0  0  0  0  0  0  0  0
    4.9052    1.8818    2.7668 H   0  0  0  0  0  0  0  0  0  0  0  0
    5.3645    1.0804    0.4216 H   0  0  0  0  0  0  0  0  0  0  0  0
    0.7884   -1.6183   -2.5834 H   0  0  0  0  0  0  0  0  0  0  0  0
    2.5262   -2.2867   -4.2794 H   0  0  0  0  0  0  0  0  0  0  0  0
    3.7557   -1.1604   -3.4907 H   0  0  0  0  0  0  0  0  0  0  0  0
    1.0209   -0.3068   -4.7615 H   0  0  0  0  0  0  0  0  0  0  0  0
    2.2447    0.8227   -3.9538 H   0  0  0  0  0  0  0  0  0  0  0  0
  1  2  1  0
  2  3  1  0
  2  6  2  0
  3  4  1  0
  3 27  1  0
  4  5  2  0
  5  6  1  0
  5 10  1  0
  6  7  1  0
  7  8  2  0
  7 28  1  0
  8  9  1  0
  8 11  1  0
  9 10  2  0
  9 29  1  0
 10 30  1  0
 11 12  1  0
 11 15  1  0
 12 13  2  0
 12 24  1  0
 13 14  1  0
 14 15  2  0
 14 19  1  0
 15 16  1  0
 16 17  2  0
 17 18  1  0
 17 20  1  0
 18 19  2  0
 18 31  1  0
 19 32  1  0
 20 21  1  0
 20 22  1  0
 20 23  1  0
 24 25  1  0
 24 26  1  0
 24 33  1  0
 25 26  1  0
 25 34  1  0
 25 35  1  0
 26 36  1  0
 26 37  1  0
M  END
>  <group_name>  (1) 
JNS

>  <molecule_index>  (1) 
01596

>  <conformer_index>  (1) 
08

>  <method>  (1) 
openff-1.3.0

>  <basis>  (1) 
smirnoff

>  <program>  (1) 
openmm

>  <initial_energy>  (1) 
160.94046516503107 kilocalorie / mole

>  <final_energy>  (1) 
146.84873862648917 kilocalorie / mole

$$$$
