JNS-01380-02
     RDKit          3D

 34 37  0  0  0  0  0  0  0  0999 V2000
   -0.3586    1.7091    0.8953 C   0  0  0  0  0  0  0  0  0  0  0  0
    0.0002    0.3380    0.6480 O   0  0  0  0  0  0  0  0  0  0  0  0
    1.3443    0.1054    0.4291 C   0  0  0  0  0  0  0  0  0  0  0  0
    2.2522    1.0575    0.4412 N   0  0  0  0  0  0  0  0  0  0  0  0
    3.4373    0.4153    0.1359 C   0  0  0  0  0  0  0  0  0  0  0  0
    3.2476   -0.9388   -0.0674 C   0  0  0  0  0  0  0  0  0  0  0  0
    4.2497   -1.7922   -0.3635 N   0  0  0  0  0  0  0  0  0  0  0  0
    5.5079   -1.2784   -0.4760 C   0  0  0  0  0  0  0  0  0  0  0  0
    5.7450    0.1040   -0.2831 C   0  0  0  0  0  0  0  0  0  0  0  0
    4.6983    0.9722    0.0298 C   0  0  0  0  0  0  0  0  0  0  0  0
    6.6968   -2.1839   -0.8219 C   0  0  0  0  0  0  0  0  0  0  0  0
    7.5970   -2.1727    0.2047 F   0  0  0  0  0  0  0  0  0  0  0  0
    7.3241   -1.7136   -1.9404 F   0  0  0  0  0  0  0  0  0  0  0  0
    6.3286   -3.4787   -1.0574 F   0  0  0  0  0  0  0  0  0  0  0  0
    1.8950   -1.1507    0.1328 N   0  0  0  0  0  0  0  0  0  0  0  0
    1.2141   -2.3875    0.0608 C   0  0  0  0  0  0  0  0  0  0  0  0
    1.6804   -3.4269   -0.7755 C   0  0  0  0  0  0  0  0  0  0  0  0
    0.9955   -4.6432   -0.8354 C   0  0  0  0  0  0  0  0  0  0  0  0
   -0.1436   -4.8560   -0.0830 C   0  0  0  0  0  0  0  0  0  0  0  0
   -0.7477   -6.0989   -0.2167 N   0  0  0  0  0  0  0  0  0  0  0  0
   -0.0568   -6.8055   -1.0658 C   0  0  0  0  0  0  0  0  0  0  0  0
   -0.5235   -8.0494   -1.3037 O   0  0  0  0  0  0  0  0  0  0  0  0
    1.3748   -6.0566   -1.7864 S   0  0  0  0  0  0  0  0  0  0  0  0
   -0.6279   -3.8583    0.7540 C   0  0  0  0  0  0  0  0  0  0  0  0
    0.0490   -2.6309    0.8269 C   0  0  0  0  0  0  0  0  0  0  0  0
    0.1514    2.0867    1.7878 H   0  0  0  0  0  0  0  0  0  0  0  0
   -1.4380    1.7866    1.0550 H   0  0  0  0  0  0  0  0  0  0  0  0
   -0.0899    2.3380    0.0400 H   0  0  0  0  0  0  0  0  0  0  0  0
    6.7552    0.4915   -0.3780 H   0  0  0  0  0  0  0  0  0  0  0  0
    4.8458    2.0367    0.1883 H   0  0  0  0  0  0  0  0  0  0  0  0
    2.5615   -3.3056   -1.3970 H   0  0  0  0  0  0  0  0  0  0  0  0
   -1.3100   -8.1187   -0.7418 H   0  0  0  0  0  0  0  0  0  0  0  0
   -1.5195   -4.0463    1.3433 H   0  0  0  0  0  0  0  0  0  0  0  0
   -0.3417   -1.8852    1.5104 H   0  0  0  0  0  0  0  0  0  0  0  0
  1  2  1  0
  1 26  1  0
  1 27  1  0
  1 28  1  0
  2  3  1  0
  3  4  2  0
  3 15  1  0
  4  5  1  0
  5  6  2  0
  5 10  1  0
  6  7  1  0
  6 15  1  0
  7  8  2  0
  8  9  1  0
  8 11  1  0
  9 10  2  0
  9 29  1  0
 10 30  1  0
 11 12  1  0
 11 13  1  0
 11 14  1  0
 15 16  1  0
 16 17  2  0
 16 25  1  0
 17 18  1  0
 17 31  1  0
 18 19  2  0
 18 23  1  0
 19 20  1  0
 19 24  1  0
 20 21  2  0
 21 22  1  0
 21 23  1  0
 22 32  1  0
 24 25  2  0
 24 33  1  0
 25 34  1  0
M  END
>  <group_name>  (1) 
JNS

>  <molecule_index>  (1) 
01380

>  <conformer_index>  (1) 
02

>  <method>  (1) 
openff-1.3.0

>  <basis>  (1) 
smirnoff

>  <program>  (1) 
openmm

>  <initial_energy>  (1) 
80.24881018774971 kilocalorie / mole

>  <final_energy>  (1) 
68.93473785409353 kilocalorie / mole

$$$$
