JNS-01681-01
     RDKit          3D

 30 33  0  0  0  0  0  0  0  0999 V2000
   -0.4212    1.5548   -0.0779 F   0  0  0  0  0  0  0  0  0  0  0  0
   -0.0809    0.2356    0.0218 C   0  0  0  0  0  0  0  0  0  0  0  0
   -0.6751   -0.2705    1.1438 F   0  0  0  0  0  0  0  0  0  0  0  0
   -0.5927   -0.4158   -1.0640 F   0  0  0  0  0  0  0  0  0  0  0  0
    1.4467    0.0941    0.0377 C   0  0  0  0  0  0  0  0  0  0  0  0
    2.0776   -0.5280    1.0736 N   0  0  0  0  0  0  0  0  0  0  0  0
    3.4228   -0.6139    1.0348 C   0  0  0  0  0  0  0  0  0  0  0  0
    4.1809   -0.1107   -0.0104 C   0  0  0  0  0  0  0  0  0  0  0  0
    3.5763    0.5265   -1.0780 C   0  0  0  0  0  0  0  0  0  0  0  0
    2.1860    0.6276   -1.0445 C   0  0  0  0  0  0  0  0  0  0  0  0
    5.5341   -0.3393    0.1717 N   0  0  0  0  0  0  0  0  0  0  0  0
    5.6005   -0.9777    1.3147 C   0  0  0  0  0  0  0  0  0  0  0  0
    4.3470   -1.1822    1.9008 N   0  0  0  0  0  0  0  0  0  0  0  0
    4.1153   -1.8443    3.1294 C   0  0  0  0  0  0  0  0  0  0  0  0
    2.8820   -1.7428    3.8119 C   0  0  0  0  0  0  0  0  0  0  0  0
    2.6963   -2.4100    5.0262 C   0  0  0  0  0  0  0  0  0  0  0  0
    3.6893   -3.1678    5.5819 C   0  0  0  0  0  0  0  0  0  0  0  0
    3.1632   -3.6698    6.7613 N   0  0  0  0  0  0  0  0  0  0  0  0
    1.8800   -3.2516    6.9623 N   0  0  0  0  0  0  0  0  0  0  0  0
    1.5738   -2.4939    5.9340 C   0  0  0  0  0  0  0  0  0  0  0  0
    4.9211   -3.2953    4.9445 C   0  0  0  0  0  0  0  0  0  0  0  0
    5.1303   -2.6350    3.7236 C   0  0  0  0  0  0  0  0  0  0  0  0
    4.1739    0.9208   -1.8952 H   0  0  0  0  0  0  0  0  0  0  0  0
    1.6625    1.1193   -1.8590 H   0  0  0  0  0  0  0  0  0  0  0  0
    6.5416   -1.2962    1.7510 H   0  0  0  0  0  0  0  0  0  0  0  0
    2.0592   -1.1466    3.4343 H   0  0  0  0  0  0  0  0  0  0  0  0
    3.6737   -4.2801    7.3998 H   0  0  0  0  0  0  0  0  0  0  0  0
    0.6169   -2.0018    5.7866 H   0  0  0  0  0  0  0  0  0  0  0  0
    5.7071   -3.9009    5.3851 H   0  0  0  0  0  0  0  0  0  0  0  0
    6.0948   -2.7687    3.2473 H   0  0  0  0  0  0  0  0  0  0  0  0
  1  2  1  0
  2  3  1  0
  2  4  1  0
  2  5  1  0
  5  6  2  0
  5 10  1  0
  6  7  1  0
  7  8  2  0
  7 13  1  0
  8  9  1  0
  8 11  1  0
  9 10  2  0
  9 23  1  0
 10 24  1  0
 11 12  2  0
 12 13  1  0
 12 25  1  0
 13 14  1  0
 14 15  2  0
 14 22  1  0
 15 16  1  0
 15 26  1  0
 16 17  2  0
 16 20  1  0
 17 18  1  0
 17 21  1  0
 18 19  1  0
 18 27  1  0
 19 20  2  0
 20 28  1  0
 21 22  2  0
 21 29  1  0
 22 30  1  0
M  END
>  <group_name>  (1) 
JNS

>  <molecule_index>  (1) 
01681

>  <conformer_index>  (1) 
01

>  <method>  (1) 
openff-1.3.0

>  <basis>  (1) 
smirnoff

>  <program>  (1) 
openmm

>  <initial_energy>  (1) 
148.98009123745246 kilocalorie / mole

>  <final_energy>  (1) 
139.20328564741934 kilocalorie / mole

$$$$
