JNS-01861-03
     RDKit          3D

 34 37  0  0  0  0  0  0  0  0999 V2000
   -2.6520   -0.4997    2.2661 C   0  0  0  0  0  0  0  0  0  0  0  0
   -2.0656   -0.1081    0.9329 C   0  0  0  0  0  0  0  0  0  0  0  0
   -0.6851    0.1228    0.7963 C   0  0  0  0  0  0  0  0  0  0  0  0
   -0.1085    0.4977   -0.4394 C   0  0  0  0  0  0  0  0  0  0  0  0
   -0.9666    0.6320   -1.5515 C   0  0  0  0  0  0  0  0  0  0  0  0
   -2.3360    0.4016   -1.4129 C   0  0  0  0  0  0  0  0  0  0  0  0
   -2.8826    0.0378   -0.1942 C   0  0  0  0  0  0  0  0  0  0  0  0
   -4.1801   -0.1296   -0.2705 N   0  0  0  0  0  0  0  0  0  0  0  0
   -4.4930    0.1322   -1.5650 N   0  0  0  0  0  0  0  0  0  0  0  0
   -3.3651    0.4661   -2.3005 C   0  0  0  0  0  0  0  0  0  0  0  0
    1.2798    0.7235   -0.5806 N   0  0  0  0  0  0  0  0  0  0  0  0
    1.9695    0.6389   -1.8011 C   0  0  0  0  0  0  0  0  0  0  0  0
    3.3013    0.9134   -1.5910 C   0  0  0  0  0  0  0  0  0  0  0  0
    3.4477    1.1866   -0.1820 C   0  0  0  0  0  0  0  0  0  0  0  0
    2.2020    1.0653    0.4266 C   0  0  0  0  0  0  0  0  0  0  0  0
    2.0172    1.2891    1.7436 N   0  0  0  0  0  0  0  0  0  0  0  0
    3.0991    1.6280    2.4979 C   0  0  0  0  0  0  0  0  0  0  0  0
    4.3811    1.7483    1.9133 C   0  0  0  0  0  0  0  0  0  0  0  0
    4.5704    1.5287    0.5520 C   0  0  0  0  0  0  0  0  0  0  0  0
    2.9557    1.8820    4.0046 C   0  0  0  0  0  0  0  0  0  0  0  0
    3.7968    1.0562    4.6958 F   0  0  0  0  0  0  0  0  0  0  0  0
    3.3049    3.1714    4.2909 F   0  0  0  0  0  0  0  0  0  0  0  0
    1.6867    1.6709    4.4665 F   0  0  0  0  0  0  0  0  0  0  0  0
   -3.0964   -1.4969    2.1982 H   0  0  0  0  0  0  0  0  0  0  0  0
   -1.8842   -0.5107    3.0451 H   0  0  0  0  0  0  0  0  0  0  0  0
   -3.4286    0.2144    2.5553 H   0  0  0  0  0  0  0  0  0  0  0  0
   -0.0661   -0.0143    1.6750 H   0  0  0  0  0  0  0  0  0  0  0  0
   -0.5906    0.9342   -2.5212 H   0  0  0  0  0  0  0  0  0  0  0  0
   -5.4407    0.0906   -1.9365 H   0  0  0  0  0  0  0  0  0  0  0  0
   -3.3101    0.7253   -3.3529 H   0  0  0  0  0  0  0  0  0  0  0  0
    1.5370    0.3738   -2.7608 H   0  0  0  0  0  0  0  0  0  0  0  0
    4.0903    0.9183   -2.3384 H   0  0  0  0  0  0  0  0  0  0  0  0
    5.2274    2.0192    2.5373 H   0  0  0  0  0  0  0  0  0  0  0  0
    5.5468    1.6230    0.0845 H   0  0  0  0  0  0  0  0  0  0  0  0
  1  2  1  0
  1 24  1  0
  1 25  1  0
  1 26  1  0
  2  3  2  0
  2  7  1  0
  3  4  1  0
  3 27  1  0
  4  5  2  0
  4 11  1  0
  5  6  1  0
  5 28  1  0
  6  7  1  0
  6 10  2  0
  7  8  2  0
  8  9  1  0
  9 10  1  0
  9 29  1  0
 10 30  1  0
 11 12  1  0
 11 15  1  0
 12 13  2  0
 12 31  1  0
 13 14  1  0
 13 32  1  0
 14 15  2  0
 14 19  1  0
 15 16  1  0
 16 17  2  0
 17 18  1  0
 17 20  1  0
 18 19  2  0
 18 33  1  0
 19 34  1  0
 20 21  1  0
 20 22  1  0
 20 23  1  0
M  END
>  <group_name>  (1) 
JNS

>  <molecule_index>  (1) 
01861

>  <conformer_index>  (1) 
03

>  <method>  (1) 
openff-1.3.0

>  <basis>  (1) 
smirnoff

>  <program>  (1) 
openmm

>  <initial_energy>  (1) 
150.02744239757047 kilocalorie / mole

>  <final_energy>  (1) 
136.15444362036143 kilocalorie / mole

$$$$
