JNS-01155-03
     RDKit          3D

 46 50  0  0  0  0  0  0  0  0999 V2000
   -0.1655    1.2261   -1.5986 F   0  0  0  0  0  0  0  0  0  0  0  0
    0.1746   -0.0738   -1.3513 C   0  0  0  0  0  0  0  0  0  0  0  0
   -0.7592   -0.5685   -0.4873 F   0  0  0  0  0  0  0  0  0  0  0  0
    0.0822   -0.7594   -2.5289 F   0  0  0  0  0  0  0  0  0  0  0  0
    1.6006   -0.1803   -0.7963 C   0  0  0  0  0  0  0  0  0  0  0  0
    2.5406    0.6877   -1.1219 N   0  0  0  0  0  0  0  0  0  0  0  0
    3.6699    0.3731   -0.3579 C   0  0  0  0  0  0  0  0  0  0  0  0
    3.3858   -0.7128    0.4456 C   0  0  0  0  0  0  0  0  0  0  0  0
    4.2424   -1.2706    1.3161 N   0  0  0  0  0  0  0  0  0  0  0  0
    5.4769   -0.7225    1.4165 C   0  0  0  0  0  0  0  0  0  0  0  0
    5.8293    0.3915    0.6326 C   0  0  0  0  0  0  0  0  0  0  0  0
    4.9388    0.9677   -0.2699 C   0  0  0  0  0  0  0  0  0  0  0  0
    5.3332    2.0856   -1.0344 N   0  0  0  0  0  0  0  0  0  0  0  0
    6.4332    2.9733   -0.5972 C   0  0  0  0  0  0  0  0  0  0  0  0
    6.2112    4.4046   -1.1118 C   0  0  0  0  0  0  0  0  0  0  0  0
    6.0581    4.4861   -2.5474 O   0  0  0  0  0  0  0  0  0  0  0  0
    5.4757    3.3238   -3.1834 C   0  0  0  0  0  0  0  0  0  0  0  0
    4.5929    2.4745   -2.2551 C   0  0  0  0  0  0  0  0  0  0  0  0
    6.5144   -1.2985    2.3942 C   0  0  0  0  0  0  0  0  0  0  0  0
    7.5803   -1.7953    1.6991 F   0  0  0  0  0  0  0  0  0  0  0  0
    6.0115   -2.2977    3.1800 F   0  0  0  0  0  0  0  0  0  0  0  0
    6.9740   -0.3104    3.2193 F   0  0  0  0  0  0  0  0  0  0  0  0
    2.0911   -1.1015    0.1489 N   0  0  0  0  0  0  0  0  0  0  0  0
    1.4633   -2.2711    0.6275 C   0  0  0  0  0  0  0  0  0  0  0  0
    1.5996   -2.6524    1.9784 C   0  0  0  0  0  0  0  0  0  0  0  0
    0.9771   -3.8158    2.4398 C   0  0  0  0  0  0  0  0  0  0  0  0
    0.2369   -4.6045    1.6015 C   0  0  0  0  0  0  0  0  0  0  0  0
   -0.2242   -5.6521    2.3816 N   0  0  0  0  0  0  0  0  0  0  0  0
    0.2016   -5.5472    3.6741 N   0  0  0  0  0  0  0  0  0  0  0  0
    0.9274   -4.4543    3.7358 C   0  0  0  0  0  0  0  0  0  0  0  0
    0.0925   -4.2701    0.2558 C   0  0  0  0  0  0  0  0  0  0  0  0
    0.7115   -3.1076   -0.2285 C   0  0  0  0  0  0  0  0  0  0  0  0
    6.8343    0.7792    0.7374 H   0  0  0  0  0  0  0  0  0  0  0  0
    6.4828    3.0107    0.4957 H   0  0  0  0  0  0  0  0  0  0  0  0
    7.3889    2.5954   -0.9743 H   0  0  0  0  0  0  0  0  0  0  0  0
    5.3148    4.8161   -0.6374 H   0  0  0  0  0  0  0  0  0  0  0  0
    7.0585    5.0258   -0.8073 H   0  0  0  0  0  0  0  0  0  0  0  0
    4.8764    3.6470   -4.0397 H   0  0  0  0  0  0  0  0  0  0  0  0
    6.2842    2.6950   -3.5686 H   0  0  0  0  0  0  0  0  0  0  0  0
    4.2794    1.5834   -2.8081 H   0  0  0  0  0  0  0  0  0  0  0  0
    3.6969    3.0418   -1.9827 H   0  0  0  0  0  0  0  0  0  0  0  0
    2.1774   -2.0479    2.6720 H   0  0  0  0  0  0  0  0  0  0  0  0
   -0.8073   -6.4113    2.0286 H   0  0  0  0  0  0  0  0  0  0  0  0
    1.4183   -4.0836    4.6308 H   0  0  0  0  0  0  0  0  0  0  0  0
   -0.4836   -4.9036   -0.4117 H   0  0  0  0  0  0  0  0  0  0  0  0
    0.6169   -2.8811   -1.2847 H   0  0  0  0  0  0  0  0  0  0  0  0
  1  2  1  0
  2  3  1  0
  2  4  1  0
  2  5  1  0
  5  6  2  0
  5 23  1  0
  6  7  1  0
  7  8  2  0
  7 12  1  0
  8  9  1  0
  8 23  1  0
  9 10  2  0
 10 11  1  0
 10 19  1  0
 11 12  2  0
 11 33  1  0
 12 13  1  0
 13 14  1  0
 13 18  1  0
 14 15  1  0
 14 34  1  0
 14 35  1  0
 15 16  1  0
 15 36  1  0
 15 37  1  0
 16 17  1  0
 17 18  1  0
 17 38  1  0
 17 39  1  0
 18 40  1  0
 18 41  1  0
 19 20  1  0
 19 21  1  0
 19 22  1  0
 23 24  1  0
 24 25  2  0
 24 32  1  0
 25 26  1  0
 25 42  1  0
 26 27  2  0
 26 30  1  0
 27 28  1  0
 27 31  1  0
 28 29  1  0
 28 43  1  0
 29 30  2  0
 30 44  1  0
 31 32  2  0
 31 45  1  0
 32 46  1  0
M  END
>  <group_name>  (1) 
JNS

>  <molecule_index>  (1) 
01155

>  <conformer_index>  (1) 
03

>  <method>  (1) 
openff-1.3.0

>  <basis>  (1) 
smirnoff

>  <program>  (1) 
openmm

>  <initial_energy>  (1) 
213.07690458063155 kilocalorie / mole

>  <final_energy>  (1) 
194.22943557905472 kilocalorie / mole

$$$$
