JNS-01564-05
     RDKit          3D

 45 49  0  0  0  0  0  0  0  0999 V2000
   -2.2971   -2.0729    1.8016 C   0  0  0  0  0  0  0  0  0  0  0  0
   -1.7609   -1.0106    0.8745 C   0  0  0  0  0  0  0  0  0  0  0  0
   -2.6211   -0.1250    0.2194 C   0  0  0  0  0  0  0  0  0  0  0  0
   -4.0006   -0.0508    0.2549 N   0  0  0  0  0  0  0  0  0  0  0  0
   -4.4137    0.8803   -0.6526 C   0  0  0  0  0  0  0  0  0  0  0  0
   -5.5827    0.9626   -1.0033 O   0  0  0  0  0  0  0  0  0  0  0  0
   -3.2451    1.6328   -1.2765 C   0  0  0  0  0  0  0  0  0  0  0  0
   -2.1298    0.8464   -0.6375 C   0  0  0  0  0  0  0  0  0  0  0  0
   -0.7580    0.9772   -0.8597 C   0  0  0  0  0  0  0  0  0  0  0  0
    0.1386    0.1234   -0.1924 C   0  0  0  0  0  0  0  0  0  0  0  0
   -0.3781   -0.8722    0.6618 C   0  0  0  0  0  0  0  0  0  0  0  0
    1.5932    0.2455   -0.3951 C   0  0  0  0  0  0  0  0  0  0  0  0
    2.4931   -0.7807   -0.5018 C   0  0  0  0  0  0  0  0  0  0  0  0
    2.2936   -2.1115   -0.4413 N   0  0  0  0  0  0  0  0  0  0  0  0
    3.3803   -2.9185   -0.6004 C   0  0  0  0  0  0  0  0  0  0  0  0
    4.6665   -2.3704   -0.8219 C   0  0  0  0  0  0  0  0  0  0  0  0
    4.8550   -0.9903   -0.8839 C   0  0  0  0  0  0  0  0  0  0  0  0
    3.7315   -0.1989   -0.7171 C   0  0  0  0  0  0  0  0  0  0  0  0
    3.6768    1.1051   -0.7412 N   0  0  0  0  0  0  0  0  0  0  0  0
    2.3662    1.4054   -0.5213 N   0  0  0  0  0  0  0  0  0  0  0  0
    1.8848    2.7808   -0.2902 C   0  0  0  0  0  0  0  0  0  0  0  0
    1.1016    3.0291    1.0033 C   0  0  0  0  0  0  0  0  0  0  0  0
    1.9370    4.2740    1.2700 C   0  0  0  0  0  0  0  0  0  0  0  0
    2.9103    3.8151    0.1922 C   0  0  0  0  0  0  0  0  0  0  0  0
    3.2354   -4.4427   -0.5329 C   0  0  0  0  0  0  0  0  0  0  0  0
    4.0769   -4.9474    0.4180 F   0  0  0  0  0  0  0  0  0  0  0  0
    3.5786   -4.9944   -1.7343 F   0  0  0  0  0  0  0  0  0  0  0  0
    1.9661   -4.8462   -0.2240 F   0  0  0  0  0  0  0  0  0  0  0  0
   -3.0014   -1.6328    2.5141 H   0  0  0  0  0  0  0  0  0  0  0  0
   -1.4866   -2.5434    2.3665 H   0  0  0  0  0  0  0  0  0  0  0  0
   -2.8119   -2.8467    1.2243 H   0  0  0  0  0  0  0  0  0  0  0  0
   -4.5877   -0.8614    0.4153 H   0  0  0  0  0  0  0  0  0  0  0  0
   -3.2424    2.6791   -0.9636 H   0  0  0  0  0  0  0  0  0  0  0  0
   -3.2514    1.5347   -2.3646 H   0  0  0  0  0  0  0  0  0  0  0  0
   -0.3994    1.7220   -1.5622 H   0  0  0  0  0  0  0  0  0  0  0  0
    0.3074   -1.5472    1.1671 H   0  0  0  0  0  0  0  0  0  0  0  0
    5.5162   -3.0342   -0.9459 H   0  0  0  0  0  0  0  0  0  0  0  0
    5.8324   -0.5475   -1.0551 H   0  0  0  0  0  0  0  0  0  0  0  0
    1.3487    3.1498   -1.1694 H   0  0  0  0  0  0  0  0  0  0  0  0
    0.0320    3.2151    0.8632 H   0  0  0  0  0  0  0  0  0  0  0  0
    1.2480    2.2509    1.7608 H   0  0  0  0  0  0  0  0  0  0  0  0
    2.3634    4.3316    2.2771 H   0  0  0  0  0  0  0  0  0  0  0  0
    1.4205    5.2075    1.0223 H   0  0  0  0  0  0  0  0  0  0  0  0
    3.1704    4.5762   -0.5502 H   0  0  0  0  0  0  0  0  0  0  0  0
    3.8237    3.3813    0.6140 H   0  0  0  0  0  0  0  0  0  0  0  0
  1  2  1  0
  1 29  1  0
  1 30  1  0
  1 31  1  0
  2  3  2  0
  2 11  1  0
  3  4  1  0
  3  8  1  0
  4  5  1  0
  4 32  1  0
  5  6  2  0
  5  7  1  0
  7  8  1  0
  7 33  1  0
  7 34  1  0
  8  9  2  0
  9 10  1  0
  9 35  1  0
 10 11  2  0
 10 12  1  0
 11 36  1  0
 12 13  2  0
 12 20  1  0
 13 14  1  0
 13 18  1  0
 14 15  2  0
 15 16  1  0
 15 25  1  0
 16 17  2  0
 16 37  1  0
 17 18  1  0
 17 38  1  0
 18 19  2  0
 19 20  1  0
 20 21  1  0
 21 22  1  0
 21 24  1  0
 21 39  1  0
 22 23  1  0
 22 40  1  0
 22 41  1  0
 23 24  1  0
 23 42  1  0
 23 43  1  0
 24 44  1  0
 24 45  1  0
 25 26  1  0
 25 27  1  0
 25 28  1  0
M  END
>  <group_name>  (1) 
JNS

>  <molecule_index>  (1) 
01564

>  <conformer_index>  (1) 
05

>  <method>  (1) 
openff-1.3.0

>  <basis>  (1) 
smirnoff

>  <program>  (1) 
openmm

>  <initial_energy>  (1) 
139.15495250896092 kilocalorie / mole

>  <final_energy>  (1) 
124.84848517847462 kilocalorie / mole

$$$$
