JNS-01614-09
     RDKit          3D

 39 42  0  0  0  0  0  0  0  0999 V2000
   -0.7710   -0.0137    0.1978 C   0  0  0  0  0  0  0  0  0  0  0  0
    0.0840    0.8882   -0.6962 C   0  0  0  0  0  0  0  0  0  0  0  0
    1.5487    0.5243   -0.6147 C   0  0  0  0  0  0  0  0  0  0  0  0
    2.3970    1.3663   -0.0718 N   0  0  0  0  0  0  0  0  0  0  0  0
    3.6090    0.6958   -0.0656 C   0  0  0  0  0  0  0  0  0  0  0  0
    3.4938   -0.5691   -0.6093 C   0  0  0  0  0  0  0  0  0  0  0  0
    4.5217   -1.4341   -0.7229 N   0  0  0  0  0  0  0  0  0  0  0  0
    5.7393   -1.0261   -0.2660 C   0  0  0  0  0  0  0  0  0  0  0  0
    5.9058    0.2609    0.3020 C   0  0  0  0  0  0  0  0  0  0  0  0
    4.8288    1.1424    0.4076 C   0  0  0  0  0  0  0  0  0  0  0  0
    6.9583   -1.9541   -0.3478 C   0  0  0  0  0  0  0  0  0  0  0  0
    7.9099   -1.3952   -1.1523 F   0  0  0  0  0  0  0  0  0  0  0  0
    7.4997   -2.1163    0.8960 F   0  0  0  0  0  0  0  0  0  0  0  0
    6.6554   -3.1931   -0.8388 F   0  0  0  0  0  0  0  0  0  0  0  0
    2.1709   -0.6780   -0.9945 N   0  0  0  0  0  0  0  0  0  0  0  0
    1.5861   -1.7991   -1.6146 C   0  0  0  0  0  0  0  0  0  0  0  0
    0.6699   -1.6592   -2.6749 C   0  0  0  0  0  0  0  0  0  0  0  0
    0.1033   -2.7965   -3.2556 C   0  0  0  0  0  0  0  0  0  0  0  0
    0.4348   -4.0529   -2.8218 C   0  0  0  0  0  0  0  0  0  0  0  0
   -0.2941   -4.9260   -3.6131 N   0  0  0  0  0  0  0  0  0  0  0  0
   -1.0649   -4.2644   -4.5245 N   0  0  0  0  0  0  0  0  0  0  0  0
   -0.8418   -2.9852   -4.3341 C   0  0  0  0  0  0  0  0  0  0  0  0
    1.3537   -4.2403   -1.7849 C   0  0  0  0  0  0  0  0  0  0  0  0
    1.7429   -5.6249   -1.3342 C   0  0  0  0  0  0  0  0  0  0  0  0
    1.9284   -3.1021   -1.1938 C   0  0  0  0  0  0  0  0  0  0  0  0
   -0.6995   -1.0586   -0.1186 H   0  0  0  0  0  0  0  0  0  0  0  0
   -1.8203    0.2923    0.1450 H   0  0  0  0  0  0  0  0  0  0  0  0
   -0.4380    0.0607    1.2381 H   0  0  0  0  0  0  0  0  0  0  0  0
   -0.0408    1.9261   -0.3718 H   0  0  0  0  0  0  0  0  0  0  0  0
   -0.2674    0.8352   -1.7270 H   0  0  0  0  0  0  0  0  0  0  0  0
    6.8851    0.5643    0.6599 H   0  0  0  0  0  0  0  0  0  0  0  0
    4.9225    2.1354    0.8379 H   0  0  0  0  0  0  0  0  0  0  0  0
    0.4199   -0.6855   -3.0785 H   0  0  0  0  0  0  0  0  0  0  0  0
   -0.2458   -5.9415   -3.5261 H   0  0  0  0  0  0  0  0  0  0  0  0
   -1.3028   -2.1842   -4.9042 H   0  0  0  0  0  0  0  0  0  0  0  0
    1.9682   -6.2553   -2.1994 H   0  0  0  0  0  0  0  0  0  0  0  0
    0.9243   -6.0765   -0.7662 H   0  0  0  0  0  0  0  0  0  0  0  0
    2.6324   -5.5900   -0.6976 H   0  0  0  0  0  0  0  0  0  0  0  0
    2.6451   -3.2346   -0.3886 H   0  0  0  0  0  0  0  0  0  0  0  0
  1  2  1  0
  1 26  1  0
  1 27  1  0
  1 28  1  0
  2  3  1  0
  2 29  1  0
  2 30  1  0
  3  4  2  0
  3 15  1  0
  4  5  1  0
  5  6  2  0
  5 10  1  0
  6  7  1  0
  6 15  1  0
  7  8  2  0
  8  9  1  0
  8 11  1  0
  9 10  2  0
  9 31  1  0
 10 32  1  0
 11 12  1  0
 11 13  1  0
 11 14  1  0
 15 16  1  0
 16 17  2  0
 16 25  1  0
 17 18  1  0
 17 33  1  0
 18 19  2  0
 18 22  1  0
 19 20  1  0
 19 23  1  0
 20 21  1  0
 20 34  1  0
 21 22  2  0
 22 35  1  0
 23 24  1  0
 23 25  2  0
 24 36  1  0
 24 37  1  0
 24 38  1  0
 25 39  1  0
M  END
>  <group_name>  (1) 
JNS

>  <molecule_index>  (1) 
01614

>  <conformer_index>  (1) 
09

>  <method>  (1) 
openff-1.3.0

>  <basis>  (1) 
smirnoff

>  <program>  (1) 
openmm

>  <initial_energy>  (1) 
147.76946874386115 kilocalorie / mole

>  <final_energy>  (1) 
137.1919714540278 kilocalorie / mole

$$$$
