JNS-01548-07
     RDKit          3D

 36 39  0  0  0  0  0  0  0  0999 V2000
   -2.9374    2.2460    0.0053 C   0  0  0  0  0  0  0  0  0  0  0  0
   -2.1461    0.9608    0.0121 C   0  0  0  0  0  0  0  0  0  0  0  0
   -0.7400    0.9825   -0.0319 C   0  0  0  0  0  0  0  0  0  0  0  0
    0.0201   -0.2078   -0.0258 C   0  0  0  0  0  0  0  0  0  0  0  0
   -0.6643   -1.4350    0.0593 C   0  0  0  0  0  0  0  0  0  0  0  0
   -2.0583   -1.4523    0.1075 C   0  0  0  0  0  0  0  0  0  0  0  0
   -2.7947   -0.2797    0.0811 C   0  0  0  0  0  0  0  0  0  0  0  0
   -4.1781   -0.4402    0.1344 N   0  0  0  0  0  0  0  0  0  0  0  0
   -4.4547   -1.7109    0.2017 C   0  0  0  0  0  0  0  0  0  0  0  0
   -5.7675   -2.0191    0.2585 O   0  0  0  0  0  0  0  0  0  0  0  0
   -3.1016   -2.8473    0.2067 S   0  0  0  0  0  0  0  0  0  0  0  0
    1.4286   -0.1827   -0.0678 N   0  0  0  0  0  0  0  0  0  0  0  0
    2.2533   -0.9588    0.7264 C   0  0  0  0  0  0  0  0  0  0  0  0
    3.5285   -0.4909    0.4918 C   0  0  0  0  0  0  0  0  0  0  0  0
    4.6085   -1.0413    1.1575 C   0  0  0  0  0  0  0  0  0  0  0  0
    4.3334   -2.0695    2.0600 C   0  0  0  0  0  0  0  0  0  0  0  0
    3.0057   -2.5140    2.2716 C   0  0  0  0  0  0  0  0  0  0  0  0
    1.9661   -1.9472    1.5964 N   0  0  0  0  0  0  0  0  0  0  0  0
    2.7630   -3.6512    3.2721 C   0  0  0  0  0  0  0  0  0  0  0  0
    3.1545   -3.2567    4.5194 F   0  0  0  0  0  0  0  0  0  0  0  0
    3.5069   -4.7411    2.9196 F   0  0  0  0  0  0  0  0  0  0  0  0
    1.4531   -4.0354    3.3339 F   0  0  0  0  0  0  0  0  0  0  0  0
    3.5307    0.5256   -0.4465 N   0  0  0  0  0  0  0  0  0  0  0  0
    2.2665    0.6907   -0.7985 C   0  0  0  0  0  0  0  0  0  0  0  0
    1.8595    1.6556   -1.9197 C   0  0  0  0  0  0  0  0  0  0  0  0
    2.8387    1.7579   -2.8664 F   0  0  0  0  0  0  0  0  0  0  0  0
    1.6414    2.9013   -1.4047 F   0  0  0  0  0  0  0  0  0  0  0  0
    0.7278    1.2491   -2.5656 F   0  0  0  0  0  0  0  0  0  0  0  0
   -2.2774    3.1173    0.0439 H   0  0  0  0  0  0  0  0  0  0  0  0
   -3.5415    2.3043   -0.9050 H   0  0  0  0  0  0  0  0  0  0  0  0
   -3.6053    2.2780    0.8714 H   0  0  0  0  0  0  0  0  0  0  0  0
   -0.2450    1.9466   -0.0465 H   0  0  0  0  0  0  0  0  0  0  0  0
   -0.1239   -2.3772    0.0803 H   0  0  0  0  0  0  0  0  0  0  0  0
   -6.2145   -1.1595    0.2373 H   0  0  0  0  0  0  0  0  0  0  0  0
    5.6153   -0.6764    0.9719 H   0  0  0  0  0  0  0  0  0  0  0  0
    5.1468   -2.5356    2.6084 H   0  0  0  0  0  0  0  0  0  0  0  0
  1  2  1  0
  1 29  1  0
  1 30  1  0
  1 31  1  0
  2  3  2  0
  2  7  1  0
  3  4  1  0
  3 32  1  0
  4  5  2  0
  4 12  1  0
  5  6  1  0
  5 33  1  0
  6  7  2  0
  6 11  1  0
  7  8  1  0
  8  9  2  0
  9 10  1  0
  9 11  1  0
 10 34  1  0
 12 13  1  0
 12 24  1  0
 13 14  1  0
 13 18  2  0
 14 15  2  0
 14 23  1  0
 15 16  1  0
 15 35  1  0
 16 17  2  0
 16 36  1  0
 17 18  1  0
 17 19  1  0
 19 20  1  0
 19 21  1  0
 19 22  1  0
 23 24  2  0
 24 25  1  0
 25 26  1  0
 25 27  1  0
 25 28  1  0
M  END
>  <group_name>  (1) 
JNS

>  <molecule_index>  (1) 
01548

>  <conformer_index>  (1) 
07

>  <method>  (1) 
openff-1.3.0

>  <basis>  (1) 
smirnoff

>  <program>  (1) 
openmm

>  <initial_energy>  (1) 
135.28383417037708 kilocalorie / mole

>  <final_energy>  (1) 
123.26771887444234 kilocalorie / mole

$$$$
