JNS-01581-01
     RDKit          3D

 40 44  0  0  0  0  0  0  0  0999 V2000
   -0.8564    0.1870   -0.6407 F   0  0  0  0  0  0  0  0  0  0  0  0
   -0.1170    0.8303    0.3105 C   0  0  0  0  0  0  0  0  0  0  0  0
   -0.6292    0.5141    1.5373 F   0  0  0  0  0  0  0  0  0  0  0  0
   -0.2675    2.1751    0.1239 F   0  0  0  0  0  0  0  0  0  0  0  0
    1.3617    0.4493    0.1610 C   0  0  0  0  0  0  0  0  0  0  0  0
    2.0245   -0.1827    1.1710 N   0  0  0  0  0  0  0  0  0  0  0  0
    3.3241   -0.4793    0.9715 C   0  0  0  0  0  0  0  0  0  0  0  0
    4.0093   -0.1880   -0.1919 C   0  0  0  0  0  0  0  0  0  0  0  0
    3.3691    0.4520   -1.2368 C   0  0  0  0  0  0  0  0  0  0  0  0
    2.0240    0.7728   -1.0485 C   0  0  0  0  0  0  0  0  0  0  0  0
    5.3272   -0.6073   -0.1257 N   0  0  0  0  0  0  0  0  0  0  0  0
    5.4525   -1.1448    1.0665 C   0  0  0  0  0  0  0  0  0  0  0  0
    6.8008   -1.6376    1.5602 C   0  0  0  0  0  0  0  0  0  0  0  0
    8.0385   -0.8882    1.0485 C   0  0  0  0  0  0  0  0  0  0  0  0
    8.5746   -0.7977    2.4702 C   0  0  0  0  0  0  0  0  0  0  0  0
    7.2110   -1.2379    2.9836 C   0  0  0  0  0  0  0  0  0  0  0  0
    4.2393   -1.1304    1.7766 N   0  0  0  0  0  0  0  0  0  0  0  0
    3.9566   -1.7347    3.0176 C   0  0  0  0  0  0  0  0  0  0  0  0
    4.5144   -2.9816    3.3676 C   0  0  0  0  0  0  0  0  0  0  0  0
    4.2218   -3.5490    4.6109 C   0  0  0  0  0  0  0  0  0  0  0  0
    3.3870   -2.9156    5.4927 C   0  0  0  0  0  0  0  0  0  0  0  0
    3.3100   -3.7380    6.6029 N   0  0  0  0  0  0  0  0  0  0  0  0
    4.0650   -4.8653    6.4494 N   0  0  0  0  0  0  0  0  0  0  0  0
    4.6188   -4.7788    5.2621 C   0  0  0  0  0  0  0  0  0  0  0  0
    2.7980   -1.6905    5.1801 C   0  0  0  0  0  0  0  0  0  0  0  0
    1.7313   -0.8993    6.3090 Cl  0  0  0  0  0  0  0  0  0  0  0  0
    3.0855   -1.1095    3.9369 C   0  0  0  0  0  0  0  0  0  0  0  0
    3.9060    0.6849   -2.1520 H   0  0  0  0  0  0  0  0  0  0  0  0
    1.4759    1.2764   -1.8393 H   0  0  0  0  0  0  0  0  0  0  0  0
    6.9015   -2.7125    1.3849 H   0  0  0  0  0  0  0  0  0  0  0  0
    8.6628   -1.4616    0.3557 H   0  0  0  0  0  0  0  0  0  0  0  0
    7.8191    0.0961    0.6198 H   0  0  0  0  0  0  0  0  0  0  0  0
    8.8770    0.2077    2.7809 H   0  0  0  0  0  0  0  0  0  0  0  0
    9.3728   -1.5172    2.6808 H   0  0  0  0  0  0  0  0  0  0  0  0
    6.6260   -0.4068    3.3934 H   0  0  0  0  0  0  0  0  0  0  0  0
    7.2407   -2.0623    3.7032 H   0  0  0  0  0  0  0  0  0  0  0  0
    5.1518   -3.5236    2.6778 H   0  0  0  0  0  0  0  0  0  0  0  0
    2.7422   -3.5223    7.4241 H   0  0  0  0  0  0  0  0  0  0  0  0
    5.2817   -5.5239    4.8323 H   0  0  0  0  0  0  0  0  0  0  0  0
    2.6272   -0.1545    3.6977 H   0  0  0  0  0  0  0  0  0  0  0  0
  1  2  1  0
  2  3  1  0
  2  4  1  0
  2  5  1  0
  5  6  2  0
  5 10  1  0
  6  7  1  0
  7  8  2  0
  7 17  1  0
  8  9  1  0
  8 11  1  0
  9 10  2  0
  9 28  1  0
 10 29  1  0
 11 12  2  0
 12 13  1  0
 12 17  1  0
 13 14  1  0
 13 16  1  0
 13 30  1  0
 14 15  1  0
 14 31  1  0
 14 32  1  0
 15 16  1  0
 15 33  1  0
 15 34  1  0
 16 35  1  0
 16 36  1  0
 17 18  1  0
 18 19  2  0
 18 27  1  0
 19 20  1  0
 19 37  1  0
 20 21  2  0
 20 24  1  0
 21 22  1  0
 21 25  1  0
 22 23  1  0
 22 38  1  0
 23 24  2  0
 24 39  1  0
 25 26  1  0
 25 27  2  0
 27 40  1  0
M  END
>  <group_name>  (1) 
JNS

>  <molecule_index>  (1) 
01581

>  <conformer_index>  (1) 
01

>  <method>  (1) 
openff-1.3.0

>  <basis>  (1) 
smirnoff

>  <program>  (1) 
openmm

>  <initial_energy>  (1) 
193.0731727295988 kilocalorie / mole

>  <final_energy>  (1) 
180.26354609020257 kilocalorie / mole

$$$$
