JNS-02157-04
     RDKit          3D

 42 45  0  0  0  0  0  0  0  0999 V2000
   -1.5822    1.2966    0.0825 C   0  0  0  0  0  0  0  0  0  0  0  0
   -0.3927    1.8257    0.8927 C   0  0  2  0  0  0  0  0  0  0  0  0
   -0.8498    2.6646    2.0995 C   0  0  0  0  0  0  0  0  0  0  0  0
   -1.4307    3.9822    1.6424 C   0  0  0  0  0  0  0  0  0  0  0  0
   -0.9691    4.5681    0.5076 C   0  0  0  0  0  0  0  0  0  0  0  0
    0.1314    3.9925   -0.3484 C   0  0  0  0  0  0  0  0  0  0  0  0
    0.4939    2.6069    0.0127 N   0  0  0  0  0  0  0  0  0  0  0  0
    1.5801    2.0227   -0.6320 C   0  0  0  0  0  0  0  0  0  0  0  0
    2.1432    2.6382   -1.5332 O   0  0  0  0  0  0  0  0  0  0  0  0
    2.0444    0.6546   -0.3527 C   0  0  0  0  0  0  0  0  0  0  0  0
    1.9790   -0.3157   -1.3527 C   0  0  0  0  0  0  0  0  0  0  0  0
    2.4158   -1.6116   -1.1020 C   0  0  0  0  0  0  0  0  0  0  0  0
    2.9123   -1.9919    0.0855 N   0  0  0  0  0  0  0  0  0  0  0  0
    3.0271   -1.0663    1.0806 C   0  0  0  0  0  0  0  0  0  0  0  0
    2.6069    0.2796    0.8808 C   0  0  0  0  0  0  0  0  0  0  0  0
    2.8118    1.4958    2.1330 Cl  0  0  0  0  0  0  0  0  0  0  0  0
    3.6121   -1.4979    2.4355 C   0  0  0  0  0  0  0  0  0  0  0  0
    2.7067   -1.2760    3.4347 F   0  0  0  0  0  0  0  0  0  0  0  0
    3.9233   -2.8282    2.4704 F   0  0  0  0  0  0  0  0  0  0  0  0
    4.7591   -0.8087    2.7079 F   0  0  0  0  0  0  0  0  0  0  0  0
   -1.7098    5.6943    0.2136 N   0  0  0  0  0  0  0  0  0  0  0  0
   -2.6147    5.8218    1.1496 N   0  0  0  0  0  0  0  0  0  0  0  0
   -2.4773    4.8043    2.0488 N   0  0  0  0  0  0  0  0  0  0  0  0
   -3.2633    4.6794    3.2192 C   0  0  0  0  0  0  0  0  0  0  0  0
   -2.9821    3.6909    4.0972 N   0  0  0  0  0  0  0  0  0  0  0  0
   -3.7269    3.5983    5.2039 C   0  0  0  0  0  0  0  0  0  0  0  0
   -4.7629    4.4727    5.4634 C   0  0  0  0  0  0  0  0  0  0  0  0
   -5.5144    4.3683    6.5904 F   0  0  0  0  0  0  0  0  0  0  0  0
   -5.0008    5.4573    4.5256 C   0  0  0  0  0  0  0  0  0  0  0  0
   -4.2651    5.5636    3.4165 N   0  0  0  0  0  0  0  0  0  0  0  0
   -2.1634    2.1170   -0.3499 H   0  0  0  0  0  0  0  0  0  0  0  0
   -2.2427    0.7035    0.7221 H   0  0  0  0  0  0  0  0  0  0  0  0
   -1.2286    0.6578   -0.7323 H   0  0  0  0  0  0  0  0  0  0  0  0
    0.1291    0.9564    1.3001 H   0  0  0  0  0  0  0  0  0  0  0  0
    0.0061    2.8659    2.7509 H   0  0  0  0  0  0  0  0  0  0  0  0
   -1.5794    2.0922    2.6777 H   0  0  0  0  0  0  0  0  0  0  0  0
   -0.1861    4.0296   -1.3953 H   0  0  0  0  0  0  0  0  0  0  0  0
    1.0101    4.6375   -0.2463 H   0  0  0  0  0  0  0  0  0  0  0  0
    1.5916   -0.0646   -2.3360 H   0  0  0  0  0  0  0  0  0  0  0  0
    2.3489   -2.3488   -1.8970 H   0  0  0  0  0  0  0  0  0  0  0  0
   -3.5109    2.8105    5.9201 H   0  0  0  0  0  0  0  0  0  0  0  0
   -5.8078    6.1651    4.6931 H   0  0  0  0  0  0  0  0  0  0  0  0
  1  2  1  0
  1 31  1  0
  1 32  1  0
  1 33  1  0
  2  3  1  0
  2  7  1  0
  2 34  1  1
  3  4  1  0
  3 35  1  0
  3 36  1  0
  4  5  2  0
  4 23  1  0
  5  6  1  0
  5 21  1  0
  6  7  1  0
  6 37  1  0
  6 38  1  0
  7  8  1  0
  8  9  2  0
  8 10  1  0
 10 11  2  0
 10 15  1  0
 11 12  1  0
 11 39  1  0
 12 13  2  0
 12 40  1  0
 13 14  1  0
 14 15  2  0
 14 17  1  0
 15 16  1  0
 17 18  1  0
 17 19  1  0
 17 20  1  0
 21 22  2  0
 22 23  1  0
 23 24  1  0
 24 25  2  0
 24 30  1  0
 25 26  1  0
 26 27  2  0
 26 41  1  0
 27 28  1  0
 27 29  1  0
 29 30  2  0
 29 42  1  0
M  END
>  <group_name>  (1) 
JNS

>  <molecule_index>  (1) 
02157

>  <conformer_index>  (1) 
04

>  <method>  (1) 
openff-1.3.0

>  <basis>  (1) 
smirnoff

>  <program>  (1) 
openmm

>  <initial_energy>  (1) 
90.46587832641488 kilocalorie / mole

>  <final_energy>  (1) 
78.88998036427142 kilocalorie / mole

$$$$
