JNS-00617-08
     RDKit          3D

 44 48  0  0  0  0  0  0  0  0999 V2000
   -2.6085   -4.9487   -1.2584 F   0  0  0  0  0  0  0  0  0  0  0  0
   -1.7787   -4.5458   -0.2502 C   0  0  0  0  0  0  0  0  0  0  0  0
   -2.1733   -5.1756    0.8959 F   0  0  0  0  0  0  0  0  0  0  0  0
   -0.5150   -4.9685   -0.5566 F   0  0  0  0  0  0  0  0  0  0  0  0
   -1.8766   -3.0270   -0.0701 C   0  0  0  0  0  0  0  0  0  0  0  0
   -0.7606   -2.2479   -0.1395 N   0  0  0  0  0  0  0  0  0  0  0  0
   -0.9162   -0.9189    0.0191 C   0  0  0  0  0  0  0  0  0  0  0  0
    0.0174    0.0848    0.0080 C   0  0  0  0  0  0  0  0  0  0  0  0
   -0.7257    1.2519    0.2219 N   0  0  0  0  0  0  0  0  0  0  0  0
   -0.2297    2.6246    0.0557 C   0  0  0  0  0  0  0  0  0  0  0  0
   -0.1398    3.3601    1.4003 C   0  0  0  0  0  0  0  0  0  0  0  0
   -1.4664    3.8366    1.9947 C   0  0  0  0  0  0  0  0  0  0  0  0
   -0.9355    5.2631    2.0463 C   0  0  0  0  0  0  0  0  0  0  0  0
    0.3260    4.8133    1.3204 C   0  0  0  0  0  0  0  0  0  0  0  0
   -2.0518    0.9812    0.3646 N   0  0  0  0  0  0  0  0  0  0  0  0
   -2.1428   -0.3149    0.2446 C   0  0  0  0  0  0  0  0  0  0  0  0
   -3.2958   -1.0770    0.3195 C   0  0  0  0  0  0  0  0  0  0  0  0
   -3.1503   -2.4539    0.1585 C   0  0  0  0  0  0  0  0  0  0  0  0
    1.4715   -0.0627   -0.2006 C   0  0  0  0  0  0  0  0  0  0  0  0
    1.9722   -1.0448   -1.0834 C   0  0  0  0  0  0  0  0  0  0  0  0
    3.3519   -1.1958   -1.2938 C   0  0  0  0  0  0  0  0  0  0  0  0
    4.2318   -0.3540   -0.6146 C   0  0  0  0  0  0  0  0  0  0  0  0
    5.5976   -0.2176   -0.5703 N   0  0  0  0  0  0  0  0  0  0  0  0
    5.8828    0.8103    0.3124 C   0  0  0  0  0  0  0  0  0  0  0  0
    7.1267    1.2506    0.6302 O   0  0  0  0  0  0  0  0  0  0  0  0
    4.7993    1.3247    0.8200 N   0  0  0  0  0  0  0  0  0  0  0  0
    3.7572    0.6045    0.2536 C   0  0  0  0  0  0  0  0  0  0  0  0
    2.3932    0.7572    0.4806 C   0  0  0  0  0  0  0  0  0  0  0  0
    0.7501    2.6131   -0.4286 H   0  0  0  0  0  0  0  0  0  0  0  0
   -0.9035    3.1644   -0.6163 H   0  0  0  0  0  0  0  0  0  0  0  0
    0.4459    2.7923    2.1312 H   0  0  0  0  0  0  0  0  0  0  0  0
   -2.3276    3.7182    1.3283 H   0  0  0  0  0  0  0  0  0  0  0  0
   -1.6959    3.4063    2.9751 H   0  0  0  0  0  0  0  0  0  0  0  0
   -0.7506    5.6250    3.0631 H   0  0  0  0  0  0  0  0  0  0  0  0
   -1.5398    5.9875    1.4908 H   0  0  0  0  0  0  0  0  0  0  0  0
    1.2534    5.0156    1.8667 H   0  0  0  0  0  0  0  0  0  0  0  0
    0.4031    5.2046    0.3004 H   0  0  0  0  0  0  0  0  0  0  0  0
   -4.2631   -0.6145    0.4963 H   0  0  0  0  0  0  0  0  0  0  0  0
   -4.0242   -3.0955    0.2091 H   0  0  0  0  0  0  0  0  0  0  0  0
    1.2855   -1.6983   -1.6145 H   0  0  0  0  0  0  0  0  0  0  0  0
    3.7205   -1.9584   -1.9729 H   0  0  0  0  0  0  0  0  0  0  0  0
    6.2701   -0.7782   -1.0791 H   0  0  0  0  0  0  0  0  0  0  0  0
    7.7838    0.7239    0.1632 H   0  0  0  0  0  0  0  0  0  0  0  0
    2.0836    1.5037    1.2001 H   0  0  0  0  0  0  0  0  0  0  0  0
  1  2  1  0
  2  3  1  0
  2  4  1  0
  2  5  1  0
  5  6  2  0
  5 18  1  0
  6  7  1  0
  7  8  2  0
  7 16  1  0
  8  9  1  0
  8 19  1  0
  9 10  1  0
  9 15  1  0
 10 11  1  0
 10 29  1  0
 10 30  1  0
 11 12  1  0
 11 14  1  0
 11 31  1  0
 12 13  1  0
 12 32  1  0
 12 33  1  0
 13 14  1  0
 13 34  1  0
 13 35  1  0
 14 36  1  0
 14 37  1  0
 15 16  2  0
 16 17  1  0
 17 18  2  0
 17 38  1  0
 18 39  1  0
 19 20  2  0
 19 28  1  0
 20 21  1  0
 20 40  1  0
 21 22  2  0
 21 41  1  0
 22 23  1  0
 22 27  1  0
 23 24  1  0
 23 42  1  0
 24 25  1  0
 24 26  2  0
 25 43  1  0
 26 27  1  0
 27 28  2  0
 28 44  1  0
M  END
>  <group_name>  (1) 
JNS

>  <molecule_index>  (1) 
00617

>  <conformer_index>  (1) 
08

>  <method>  (1) 
openff-1.3.0

>  <basis>  (1) 
smirnoff

>  <program>  (1) 
openmm

>  <initial_energy>  (1) 
123.83321496206514 kilocalorie / mole

>  <final_energy>  (1) 
108.84935774167998 kilocalorie / mole

$$$$
