JNS-02466-01
     RDKit          3D

 53 56  0  0  0  0  0  0  0  0999 V2000
   -0.8284   -2.0373    0.7035 C   0  0  0  0  0  0  0  0  0  0  0  0
   -0.2586   -2.4153   -0.6753 C   0  0  2  0  0  0  0  0  0  0  0  0
    1.1573   -1.9792   -0.8043 N   0  0  0  0  0  0  0  0  0  0  0  0
    1.4098   -0.5176   -0.8618 C   0  0  0  0  0  0  0  0  0  0  0  0
    2.2336   -0.0523    0.3408 C   0  0  0  0  0  0  0  0  0  0  0  0
    3.5874   -0.7823    0.4273 C   0  0  0  0  0  0  0  0  0  0  0  0
    3.5551   -2.1792   -0.2313 C   0  0  2  0  0  0  0  0  0  0  0  0
    2.1628   -2.8083   -0.1010 C   0  0  0  0  0  0  0  0  0  0  0  0
    4.6340   -3.0741    0.3421 C   0  0  0  0  0  0  0  0  0  0  0  0
    4.6017   -3.5239    1.6606 C   0  0  0  0  0  0  0  0  0  0  0  0
    5.6095   -4.3661    2.1675 C   0  0  0  0  0  0  0  0  0  0  0  0
    6.6421   -4.7627    1.3769 N   0  0  0  0  0  0  0  0  0  0  0  0
    6.6882   -4.3326    0.1045 C   0  0  0  0  0  0  0  0  0  0  0  0
    7.8247   -4.7873   -0.7637 C   0  0  0  0  0  0  0  0  0  0  0  0
    5.7042   -3.5005   -0.4363 C   0  0  0  0  0  0  0  0  0  0  0  0
    5.5101   -4.8249    3.6281 C   0  0  0  0  0  0  0  0  0  0  0  0
    5.5163   -3.7366    4.4536 F   0  0  0  0  0  0  0  0  0  0  0  0
    6.5330   -5.6498    4.0027 F   0  0  0  0  0  0  0  0  0  0  0  0
    4.3338   -5.4924    3.8210 F   0  0  0  0  0  0  0  0  0  0  0  0
   -1.1134   -1.9004   -1.8386 C   0  0  0  0  0  0  0  0  0  0  0  0
   -2.1492   -1.0602   -1.6179 N   0  0  0  0  0  0  0  0  0  0  0  0
   -2.8719   -0.6413   -2.6717 C   0  0  0  0  0  0  0  0  0  0  0  0
   -2.5788   -1.0256   -4.0082 C   0  0  0  0  0  0  0  0  0  0  0  0
   -3.2936   -0.5625   -5.0984 O   0  0  0  0  0  0  0  0  0  0  0  0
   -4.1628    0.5453   -4.8020 C   0  0  0  0  0  0  0  0  0  0  0  0
   -4.8781    0.3403   -3.4669 C   0  0  0  0  0  0  0  0  0  0  0  0
   -3.9371    0.1881   -2.3894 O   0  0  0  0  0  0  0  0  0  0  0  0
   -1.5239   -1.8994   -4.2312 C   0  0  0  0  0  0  0  0  0  0  0  0
   -0.7916   -2.3351   -3.1329 C   0  0  0  0  0  0  0  0  0  0  0  0
   -0.2297   -2.4770    1.5050 H   0  0  0  0  0  0  0  0  0  0  0  0
   -0.8459   -0.9515    0.8354 H   0  0  0  0  0  0  0  0  0  0  0  0
   -1.8513   -2.4133    0.8013 H   0  0  0  0  0  0  0  0  0  0  0  0
   -0.2812   -3.5077   -0.7414 H   0  0  0  0  0  0  0  0  0  0  0  0
    1.9651   -0.2878   -1.7771 H   0  0  0  0  0  0  0  0  0  0  0  0
    0.4722    0.0465   -0.9076 H   0  0  0  0  0  0  0  0  0  0  0  0
    1.6591   -0.2487    1.2516 H   0  0  0  0  0  0  0  0  0  0  0  0
    2.3988    1.0278    0.2846 H   0  0  0  0  0  0  0  0  0  0  0  0
    3.8606   -0.8608    1.4842 H   0  0  0  0  0  0  0  0  0  0  0  0
    4.3637   -0.1848   -0.0613 H   0  0  0  0  0  0  0  0  0  0  0  0
    3.7462   -2.0533   -1.3023 H   0  0  0  0  0  0  0  0  0  0  0  0
    1.9088   -2.8927    0.9598 H   0  0  0  0  0  0  0  0  0  0  0  0
    2.1687   -3.8180   -0.5245 H   0  0  0  0  0  0  0  0  0  0  0  0
    3.7929   -3.2233    2.3193 H   0  0  0  0  0  0  0  0  0  0  0  0
    8.3938   -5.5769   -0.2637 H   0  0  0  0  0  0  0  0  0  0  0  0
    7.4423   -5.1802   -1.7097 H   0  0  0  0  0  0  0  0  0  0  0  0
    8.4948   -3.9476   -0.9666 H   0  0  0  0  0  0  0  0  0  0  0  0
    5.7869   -3.1892   -1.4721 H   0  0  0  0  0  0  0  0  0  0  0  0
   -3.5796    1.4709   -4.7658 H   0  0  0  0  0  0  0  0  0  0  0  0
   -4.9050    0.6467   -5.5993 H   0  0  0  0  0  0  0  0  0  0  0  0
   -5.5158   -0.5477   -3.5266 H   0  0  0  0  0  0  0  0  0  0  0  0
   -5.5220    1.2014   -3.2648 H   0  0  0  0  0  0  0  0  0  0  0  0
   -1.2790   -2.2163   -5.2412 H   0  0  0  0  0  0  0  0  0  0  0  0
    0.0520   -3.0048   -3.2648 H   0  0  0  0  0  0  0  0  0  0  0  0
  1  2  1  0
  1 30  1  0
  1 31  1  0
  1 32  1  0
  2  3  1  0
  2 20  1  0
  2 33  1  1
  3  4  1  0
  3  8  1  0
  4  5  1  0
  4 34  1  0
  4 35  1  0
  5  6  1  0
  5 36  1  0
  5 37  1  0
  6  7  1  0
  6 38  1  0
  6 39  1  0
  7  8  1  0
  7  9  1  0
  7 40  1  6
  8 41  1  0
  8 42  1  0
  9 10  2  0
  9 15  1  0
 10 11  1  0
 10 43  1  0
 11 12  2  0
 11 16  1  0
 12 13  1  0
 13 14  1  0
 13 15  2  0
 14 44  1  0
 14 45  1  0
 14 46  1  0
 15 47  1  0
 16 17  1  0
 16 18  1  0
 16 19  1  0
 20 21  2  0
 20 29  1  0
 21 22  1  0
 22 23  2  0
 22 27  1  0
 23 24  1  0
 23 28  1  0
 24 25  1  0
 25 26  1  0
 25 48  1  0
 25 49  1  0
 26 27  1  0
 26 50  1  0
 26 51  1  0
 28 29  2  0
 28 52  1  0
 29 53  1  0
M  END
>  <group_name>  (1) 
JNS

>  <molecule_index>  (1) 
02466

>  <conformer_index>  (1) 
01

>  <method>  (1) 
openff-1.3.0

>  <basis>  (1) 
smirnoff

>  <program>  (1) 
openmm

>  <initial_energy>  (1) 
117.80052192060786 kilocalorie / mole

>  <final_energy>  (1) 
109.44380391528865 kilocalorie / mole

$$$$
