JNS-01356-05
     RDKit          3D

 33 36  0  0  0  0  0  0  0  0999 V2000
    0.6498   -2.7120    1.6180 F   0  0  0  0  0  0  0  0  0  0  0  0
   -0.5902   -2.6299    1.0535 C   0  0  0  0  0  0  0  0  0  0  0  0
   -1.4822   -3.0678    1.9903 F   0  0  0  0  0  0  0  0  0  0  0  0
   -0.6403   -3.4846   -0.0098 F   0  0  0  0  0  0  0  0  0  0  0  0
   -0.9201   -1.2049    0.5912 C   0  0  0  0  0  0  0  0  0  0  0  0
   -2.1616   -0.7497    0.5699 N   0  0  0  0  0  0  0  0  0  0  0  0
   -2.0658    0.5858    0.2220 C   0  0  0  0  0  0  0  0  0  0  0  0
   -0.7548    0.9616    0.0234 C   0  0  0  0  0  0  0  0  0  0  0  0
   -0.3755    2.2062   -0.3256 N   0  0  0  0  0  0  0  0  0  0  0  0
   -1.3545    3.1421   -0.4813 C   0  0  0  0  0  0  0  0  0  0  0  0
   -2.7154    2.8044   -0.2832 C   0  0  0  0  0  0  0  0  0  0  0  0
   -3.0864    1.5073    0.0740 C   0  0  0  0  0  0  0  0  0  0  0  0
   -1.0057    4.5844   -0.8703 C   0  0  0  0  0  0  0  0  0  0  0  0
   -1.4930    5.4448    0.0718 F   0  0  0  0  0  0  0  0  0  0  0  0
    0.3396    4.7948   -0.9817 F   0  0  0  0  0  0  0  0  0  0  0  0
   -1.5891    4.8907   -2.0663 F   0  0  0  0  0  0  0  0  0  0  0  0
   -0.0109   -0.1873    0.2202 N   0  0  0  0  0  0  0  0  0  0  0  0
    1.3708   -0.3005   -0.0349 C   0  0  0  0  0  0  0  0  0  0  0  0
    2.2500    0.7326    0.3455 C   0  0  0  0  0  0  0  0  0  0  0  0
    3.6139    0.6132    0.0862 C   0  0  0  0  0  0  0  0  0  0  0  0
    4.1309   -0.4943   -0.5492 C   0  0  0  0  0  0  0  0  0  0  0  0
    5.4996   -0.3434   -0.6730 N   0  0  0  0  0  0  0  0  0  0  0  0
    5.7301    0.8122   -0.1236 C   0  0  0  0  0  0  0  0  0  0  0  0
    7.0080    1.2310   -0.0980 O   0  0  0  0  0  0  0  0  0  0  0  0
    4.6317    1.4708    0.3719 O   0  0  0  0  0  0  0  0  0  0  0  0
    3.2874   -1.5334   -0.9596 C   0  0  0  0  0  0  0  0  0  0  0  0
    3.9776   -3.0749   -1.8626 Br  0  0  0  0  0  0  0  0  0  0  0  0
    1.9108   -1.4229   -0.7029 C   0  0  0  0  0  0  0  0  0  0  0  0
   -3.4791    3.5660   -0.4122 H   0  0  0  0  0  0  0  0  0  0  0  0
   -4.1211    1.2152    0.2330 H   0  0  0  0  0  0  0  0  0  0  0  0
    1.8926    1.6264    0.8483 H   0  0  0  0  0  0  0  0  0  0  0  0
    7.4870    0.5136   -0.5357 H   0  0  0  0  0  0  0  0  0  0  0  0
    1.2677   -2.2205   -1.0579 H   0  0  0  0  0  0  0  0  0  0  0  0
  1  2  1  0
  2  3  1  0
  2  4  1  0
  2  5  1  0
  5  6  2  0
  5 17  1  0
  6  7  1  0
  7  8  2  0
  7 12  1  0
  8  9  1  0
  8 17  1  0
  9 10  2  0
 10 11  1  0
 10 13  1  0
 11 12  2  0
 11 29  1  0
 12 30  1  0
 13 14  1  0
 13 15  1  0
 13 16  1  0
 17 18  1  0
 18 19  2  0
 18 28  1  0
 19 20  1  0
 19 31  1  0
 20 21  2  0
 20 25  1  0
 21 22  1  0
 21 26  1  0
 22 23  2  0
 23 24  1  0
 23 25  1  0
 24 32  1  0
 26 27  1  0
 26 28  2  0
 28 33  1  0
M  END
>  <group_name>  (1) 
JNS

>  <molecule_index>  (1) 
01356

>  <conformer_index>  (1) 
05

>  <method>  (1) 
openff-1.3.0

>  <basis>  (1) 
smirnoff

>  <program>  (1) 
openmm

>  <initial_energy>  (1) 
129.84513391613544 kilocalorie / mole

>  <final_energy>  (1) 
115.29048137733282 kilocalorie / mole

$$$$
