JNS-01155-07
     RDKit          3D

 46 50  0  0  0  0  0  0  0  0999 V2000
    0.1109    1.5925   -0.9736 F   0  0  0  0  0  0  0  0  0  0  0  0
    0.3243    0.2684   -0.7125 C   0  0  0  0  0  0  0  0  0  0  0  0
   -0.4716   -0.0589    0.3468 F   0  0  0  0  0  0  0  0  0  0  0  0
   -0.0876   -0.4429   -1.8030 F   0  0  0  0  0  0  0  0  0  0  0  0
    1.8073   -0.0104   -0.4373 C   0  0  0  0  0  0  0  0  0  0  0  0
    2.7649    0.7087   -0.9933 N   0  0  0  0  0  0  0  0  0  0  0  0
    3.9723    0.2694   -0.4422 C   0  0  0  0  0  0  0  0  0  0  0  0
    3.7224   -0.7317    0.4740 C   0  0  0  0  0  0  0  0  0  0  0  0
    4.6618   -1.3541    1.2059 N   0  0  0  0  0  0  0  0  0  0  0  0
    5.9495   -0.9651    1.0351 C   0  0  0  0  0  0  0  0  0  0  0  0
    6.2693    0.0572    0.1233 C   0  0  0  0  0  0  0  0  0  0  0  0
    5.2941    0.6915   -0.6342 C   0  0  0  0  0  0  0  0  0  0  0  0
    5.6744    1.7082   -1.5259 N   0  0  0  0  0  0  0  0  0  0  0  0
    4.9005    1.9989   -2.7516 C   0  0  0  0  0  0  0  0  0  0  0  0
    4.1916    3.3520   -2.6068 C   0  0  0  0  0  0  0  0  0  0  0  0
    5.1402    4.3888   -2.2719 O   0  0  0  0  0  0  0  0  0  0  0  0
    5.8196    4.1141   -1.0283 C   0  0  0  0  0  0  0  0  0  0  0  0
    6.5873    2.7833   -1.0858 C   0  0  0  0  0  0  0  0  0  0  0  0
    7.0823   -1.6207    1.8414 C   0  0  0  0  0  0  0  0  0  0  0  0
    7.8081   -0.6601    2.4886 F   0  0  0  0  0  0  0  0  0  0  0  0
    6.6264   -2.5021    2.7819 F   0  0  0  0  0  0  0  0  0  0  0  0
    7.9247   -2.2902    1.0001 F   0  0  0  0  0  0  0  0  0  0  0  0
    2.3561   -0.9520    0.4550 N   0  0  0  0  0  0  0  0  0  0  0  0
    1.6945   -2.0096    1.1143 C   0  0  0  0  0  0  0  0  0  0  0  0
    0.6935   -2.7664    0.4690 C   0  0  0  0  0  0  0  0  0  0  0  0
    0.0624   -3.8104    1.1518 C   0  0  0  0  0  0  0  0  0  0  0  0
    0.4071   -4.1266    2.4384 C   0  0  0  0  0  0  0  0  0  0  0  0
   -0.3988   -5.1954    2.7932 N   0  0  0  0  0  0  0  0  0  0  0  0
   -1.2330   -5.5599    1.7763 N   0  0  0  0  0  0  0  0  0  0  0  0
   -0.9761   -4.7456    0.7789 C   0  0  0  0  0  0  0  0  0  0  0  0
    1.4033   -3.4134    3.1032 C   0  0  0  0  0  0  0  0  0  0  0  0
    2.0451   -2.3590    2.4373 C   0  0  0  0  0  0  0  0  0  0  0  0
    7.3090    0.3330   -0.0059 H   0  0  0  0  0  0  0  0  0  0  0  0
    4.1753    1.2120   -2.9749 H   0  0  0  0  0  0  0  0  0  0  0  0
    5.5820    2.0417   -3.6068 H   0  0  0  0  0  0  0  0  0  0  0  0
    3.4285    3.2804   -1.8251 H   0  0  0  0  0  0  0  0  0  0  0  0
    3.6863    3.6012   -3.5443 H   0  0  0  0  0  0  0  0  0  0  0  0
    5.0857    4.0686   -0.2171 H   0  0  0  0  0  0  0  0  0  0  0  0
    6.5161    4.9268   -0.8022 H   0  0  0  0  0  0  0  0  0  0  0  0
    7.4228    2.8690   -1.7879 H   0  0  0  0  0  0  0  0  0  0  0  0
    7.0045    2.5771   -0.0957 H   0  0  0  0  0  0  0  0  0  0  0  0
    0.4137   -2.5735   -0.5608 H   0  0  0  0  0  0  0  0  0  0  0  0
   -0.3645   -5.6561    3.7031 H   0  0  0  0  0  0  0  0  0  0  0  0
   -1.4727   -4.7708   -0.1865 H   0  0  0  0  0  0  0  0  0  0  0  0
    1.6841   -3.6681    4.1205 H   0  0  0  0  0  0  0  0  0  0  0  0
    2.8183   -1.8058    2.9630 H   0  0  0  0  0  0  0  0  0  0  0  0
  1  2  1  0
  2  3  1  0
  2  4  1  0
  2  5  1  0
  5  6  2  0
  5 23  1  0
  6  7  1  0
  7  8  2  0
  7 12  1  0
  8  9  1  0
  8 23  1  0
  9 10  2  0
 10 11  1  0
 10 19  1  0
 11 12  2  0
 11 33  1  0
 12 13  1  0
 13 14  1  0
 13 18  1  0
 14 15  1  0
 14 34  1  0
 14 35  1  0
 15 16  1  0
 15 36  1  0
 15 37  1  0
 16 17  1  0
 17 18  1  0
 17 38  1  0
 17 39  1  0
 18 40  1  0
 18 41  1  0
 19 20  1  0
 19 21  1  0
 19 22  1  0
 23 24  1  0
 24 25  2  0
 24 32  1  0
 25 26  1  0
 25 42  1  0
 26 27  2  0
 26 30  1  0
 27 28  1  0
 27 31  1  0
 28 29  1  0
 28 43  1  0
 29 30  2  0
 30 44  1  0
 31 32  2  0
 31 45  1  0
 32 46  1  0
M  END
>  <group_name>  (1) 
JNS

>  <molecule_index>  (1) 
01155

>  <conformer_index>  (1) 
07

>  <method>  (1) 
openff-1.3.0

>  <basis>  (1) 
smirnoff

>  <program>  (1) 
openmm

>  <initial_energy>  (1) 
212.98283820971673 kilocalorie / mole

>  <final_energy>  (1) 
193.42867532205153 kilocalorie / mole

$$$$
