JNS-01658-06
     RDKit          3D

 38 41  0  0  0  0  0  0  0  0999 V2000
   -0.2774   -2.1330    1.8692 C   0  0  0  0  0  0  0  0  0  0  0  0
   -0.7207   -0.9516    1.0526 C   0  0  0  0  0  0  0  0  0  0  0  0
   -2.0000   -0.7275    0.8718 N   0  0  0  0  0  0  0  0  0  0  0  0
   -2.0528    0.4767    0.1892 C   0  0  0  0  0  0  0  0  0  0  0  0
   -0.7895    0.9884   -0.0417 C   0  0  0  0  0  0  0  0  0  0  0  0
   -0.5582    2.1479   -0.6897 N   0  0  0  0  0  0  0  0  0  0  0  0
   -1.6408    2.8495   -1.1304 C   0  0  0  0  0  0  0  0  0  0  0  0
   -2.9544    2.3669   -0.9126 C   0  0  0  0  0  0  0  0  0  0  0  0
   -3.1731    1.1617   -0.2435 C   0  0  0  0  0  0  0  0  0  0  0  0
   -1.4627    4.1837   -1.8667 C   0  0  0  0  0  0  0  0  0  0  0  0
   -0.1564    4.5778   -1.9471 F   0  0  0  0  0  0  0  0  0  0  0  0
   -2.1590    5.1647   -1.2196 F   0  0  0  0  0  0  0  0  0  0  0  0
   -1.9580    4.0799   -3.1351 F   0  0  0  0  0  0  0  0  0  0  0  0
    0.0815    0.0543    0.4899 N   0  0  0  0  0  0  0  0  0  0  0  0
    1.4877    0.0814    0.3891 C   0  0  0  0  0  0  0  0  0  0  0  0
    2.2268   -1.1008    0.1842 C   0  0  0  0  0  0  0  0  0  0  0  0
    3.6184   -1.0433    0.0891 C   0  0  0  0  0  0  0  0  0  0  0  0
    4.2879    0.1655    0.1780 C   0  0  0  0  0  0  0  0  0  0  0  0
    5.6462   -0.0511    0.0408 N   0  0  0  0  0  0  0  0  0  0  0  0
    5.8538   -1.3680   -0.2486 C   0  0  0  0  0  0  0  0  0  0  0  0
    6.9266   -1.7704   -0.6770 O   0  0  0  0  0  0  0  0  0  0  0  0
    4.5700   -2.1835   -0.1652 C   0  0  0  0  0  0  0  0  0  0  0  0
    3.5895    1.3627    0.3523 C   0  0  0  0  0  0  0  0  0  0  0  0
    4.3183    2.6801    0.4457 C   0  0  0  0  0  0  0  0  0  0  0  0
    2.1889    1.3055    0.4608 C   0  0  0  0  0  0  0  0  0  0  0  0
   -0.3094   -3.0366    1.2552 H   0  0  0  0  0  0  0  0  0  0  0  0
    0.7329   -1.9864    2.2577 H   0  0  0  0  0  0  0  0  0  0  0  0
   -0.9567   -2.2682    2.7156 H   0  0  0  0  0  0  0  0  0  0  0  0
   -3.8018    2.9429   -1.2723 H   0  0  0  0  0  0  0  0  0  0  0  0
   -4.1671    0.7631   -0.0612 H   0  0  0  0  0  0  0  0  0  0  0  0
    1.7336   -2.0597    0.0656 H   0  0  0  0  0  0  0  0  0  0  0  0
    6.2729    0.6359   -0.3628 H   0  0  0  0  0  0  0  0  0  0  0  0
    4.3661   -2.6921   -1.1104 H   0  0  0  0  0  0  0  0  0  0  0  0
    4.6058   -2.8833    0.6725 H   0  0  0  0  0  0  0  0  0  0  0  0
    5.1355    2.6095    1.1701 H   0  0  0  0  0  0  0  0  0  0  0  0
    3.6429    3.4785    0.7676 H   0  0  0  0  0  0  0  0  0  0  0  0
    4.7312    2.9481   -0.5314 H   0  0  0  0  0  0  0  0  0  0  0  0
    1.6411    2.2311    0.6109 H   0  0  0  0  0  0  0  0  0  0  0  0
  1  2  1  0
  1 26  1  0
  1 27  1  0
  1 28  1  0
  2  3  2  0
  2 14  1  0
  3  4  1  0
  4  5  2  0
  4  9  1  0
  5  6  1  0
  5 14  1  0
  6  7  2  0
  7  8  1  0
  7 10  1  0
  8  9  2  0
  8 29  1  0
  9 30  1  0
 10 11  1  0
 10 12  1  0
 10 13  1  0
 14 15  1  0
 15 16  2  0
 15 25  1  0
 16 17  1  0
 16 31  1  0
 17 18  2  0
 17 22  1  0
 18 19  1  0
 18 23  1  0
 19 20  1  0
 19 32  1  0
 20 21  2  0
 20 22  1  0
 22 33  1  0
 22 34  1  0
 23 24  1  0
 23 25  2  0
 24 35  1  0
 24 36  1  0
 24 37  1  0
 25 38  1  0
M  END
>  <group_name>  (1) 
JNS

>  <molecule_index>  (1) 
01658

>  <conformer_index>  (1) 
06

>  <method>  (1) 
openff-1.3.0

>  <basis>  (1) 
smirnoff

>  <program>  (1) 
openmm

>  <initial_energy>  (1) 
83.05801474281944 kilocalorie / mole

>  <final_energy>  (1) 
71.27624151162456 kilocalorie / mole

$$$$
