JNS-01589-03
     RDKit          3D

 43 47  0  0  0  0  0  0  0  0999 V2000
   -2.7981   -1.9732    1.7928 C   0  0  0  0  0  0  0  0  0  0  0  0
   -1.9973   -0.9825    0.9857 C   0  0  0  0  0  0  0  0  0  0  0  0
   -2.6375   -0.0150    0.2003 C   0  0  0  0  0  0  0  0  0  0  0  0
   -3.9255    0.1674    0.0412 N   0  0  0  0  0  0  0  0  0  0  0  0
   -4.0292    1.2332   -0.7956 N   0  0  0  0  0  0  0  0  0  0  0  0
   -2.7809    1.7138   -1.1614 C   0  0  0  0  0  0  0  0  0  0  0  0
   -1.8953    0.9073   -0.5197 C   0  0  0  0  0  0  0  0  0  0  0  0
   -0.5011    0.8970   -0.4944 C   0  0  0  0  0  0  0  0  0  0  0  0
    0.1707   -0.0708    0.2708 C   0  0  0  0  0  0  0  0  0  0  0  0
   -0.5912   -0.9934    1.0180 C   0  0  0  0  0  0  0  0  0  0  0  0
    1.6425   -0.1086    0.2937 C   0  0  0  0  0  0  0  0  0  0  0  0
    2.4922    0.9643    0.3288 C   0  0  0  0  0  0  0  0  0  0  0  0
    2.2199    2.2837    0.3431 N   0  0  0  0  0  0  0  0  0  0  0  0
    3.2749    3.1440    0.3987 C   0  0  0  0  0  0  0  0  0  0  0  0
    4.6052    2.6616    0.4418 C   0  0  0  0  0  0  0  0  0  0  0  0
    4.8703    1.2930    0.4287 C   0  0  0  0  0  0  0  0  0  0  0  0
    3.7769    0.4463    0.3697 C   0  0  0  0  0  0  0  0  0  0  0  0
    3.7948   -0.8589    0.3499 N   0  0  0  0  0  0  0  0  0  0  0  0
    2.4846   -1.2256    0.2783 N   0  0  0  0  0  0  0  0  0  0  0  0
    2.0506   -2.6167    0.0461 C   0  0  0  0  0  0  0  0  0  0  0  0
    1.1221   -2.8596   -1.1486 C   0  0  0  0  0  0  0  0  0  0  0  0
    1.9806   -4.0428   -1.5748 C   0  0  0  0  0  0  0  0  0  0  0  0
    3.0589   -3.5699   -0.6087 C   0  0  0  0  0  0  0  0  0  0  0  0
    3.0457    4.6592    0.4055 C   0  0  0  0  0  0  0  0  0  0  0  0
    1.7303    5.0047    0.2667 F   0  0  0  0  0  0  0  0  0  0  0  0
    3.7388    5.2384   -0.6200 F   0  0  0  0  0  0  0  0  0  0  0  0
    3.5058    5.1922    1.5761 F   0  0  0  0  0  0  0  0  0  0  0  0
   -2.1456   -2.5991    2.4081 H   0  0  0  0  0  0  0  0  0  0  0  0
   -3.4915   -1.4421    2.4518 H   0  0  0  0  0  0  0  0  0  0  0  0
   -3.3742   -2.6182    1.1229 H   0  0  0  0  0  0  0  0  0  0  0  0
   -4.9159    1.6325   -1.0987 H   0  0  0  0  0  0  0  0  0  0  0  0
   -2.5503    2.5532   -1.8103 H   0  0  0  0  0  0  0  0  0  0  0  0
    0.0553    1.6324   -1.0679 H   0  0  0  0  0  0  0  0  0  0  0  0
   -0.0881   -1.7181    1.6473 H   0  0  0  0  0  0  0  0  0  0  0  0
    5.4285    3.3673    0.4863 H   0  0  0  0  0  0  0  0  0  0  0  0
    5.8826    0.8998    0.4628 H   0  0  0  0  0  0  0  0  0  0  0  0
    1.6512   -3.0499    0.9676 H   0  0  0  0  0  0  0  0  0  0  0  0
    1.1289   -2.0453   -1.8820 H   0  0  0  0  0  0  0  0  0  0  0  0
    0.0903   -3.1114   -0.8836 H   0  0  0  0  0  0  0  0  0  0  0  0
    2.2760   -4.0369   -2.6292 H   0  0  0  0  0  0  0  0  0  0  0  0
    1.5496   -5.0132   -1.3062 H   0  0  0  0  0  0  0  0  0  0  0  0
    3.4523   -4.3425    0.0593 H   0  0  0  0  0  0  0  0  0  0  0  0
    3.8858   -3.0670   -1.1222 H   0  0  0  0  0  0  0  0  0  0  0  0
  1  2  1  0
  1 28  1  0
  1 29  1  0
  1 30  1  0
  2  3  1  0
  2 10  2  0
  3  4  2  0
  3  7  1  0
  4  5  1  0
  5  6  1  0
  5 31  1  0
  6  7  2  0
  6 32  1  0
  7  8  1  0
  8  9  2  0
  8 33  1  0
  9 10  1  0
  9 11  1  0
 10 34  1  0
 11 12  2  0
 11 19  1  0
 12 13  1  0
 12 17  1  0
 13 14  2  0
 14 15  1  0
 14 24  1  0
 15 16  2  0
 15 35  1  0
 16 17  1  0
 16 36  1  0
 17 18  2  0
 18 19  1  0
 19 20  1  0
 20 21  1  0
 20 23  1  0
 20 37  1  0
 21 22  1  0
 21 38  1  0
 21 39  1  0
 22 23  1  0
 22 40  1  0
 22 41  1  0
 23 42  1  0
 23 43  1  0
 24 25  1  0
 24 26  1  0
 24 27  1  0
M  END
>  <group_name>  (1) 
JNS

>  <molecule_index>  (1) 
01589

>  <conformer_index>  (1) 
03

>  <method>  (1) 
openff-1.3.0

>  <basis>  (1) 
smirnoff

>  <program>  (1) 
openmm

>  <initial_energy>  (1) 
178.30757197062596 kilocalorie / mole

>  <final_energy>  (1) 
161.15462799251068 kilocalorie / mole

$$$$
