JNS-00129-01
     RDKit          3D

 31 33  0  0  0  0  0  0  0  0999 V2000
    0.9959   -0.9148    0.1600 N   0  0  0  0  0  0  0  0  0  0  0  0
   -0.2186   -0.2257    0.2415 C   0  0  0  0  0  0  0  0  0  0  0  0
   -0.6998    0.6503   -0.7839 C   0  0  0  0  0  0  0  0  0  0  0  0
   -0.0114    0.9209   -1.9588 N   0  0  0  0  0  0  0  0  0  0  0  0
    1.3472    1.2250   -2.0784 C   0  0  0  0  0  0  0  0  0  0  0  0
    1.9327    1.1681   -3.3515 C   0  0  0  0  0  0  0  0  0  0  0  0
    3.2891    1.4750   -3.5054 C   0  0  0  0  0  0  0  0  0  0  0  0
    4.0535    1.8481   -2.4308 C   0  0  0  0  0  0  0  0  0  0  0  0
    5.3236    2.0787   -2.9333 N   0  0  0  0  0  0  0  0  0  0  0  0
    5.3830    1.8604   -4.2790 N   0  0  0  0  0  0  0  0  0  0  0  0
    4.1754    1.5000   -4.6482 C   0  0  0  0  0  0  0  0  0  0  0  0
    3.4959    1.9386   -1.1546 C   0  0  0  0  0  0  0  0  0  0  0  0
    2.1376    1.6307   -0.9838 C   0  0  0  0  0  0  0  0  0  0  0  0
   -1.9089    1.2273   -0.7465 N   0  0  0  0  0  0  0  0  0  0  0  0
   -2.6963    1.0186    0.3432 C   0  0  0  0  0  0  0  0  0  0  0  0
   -2.2604    0.1950    1.4022 C   0  0  0  0  0  0  0  0  0  0  0  0
   -1.0200   -0.4392    1.3542 C   0  0  0  0  0  0  0  0  0  0  0  0
   -4.0802    1.6686    0.4513 C   0  0  0  0  0  0  0  0  0  0  0  0
   -4.4035    2.4240   -0.6401 F   0  0  0  0  0  0  0  0  0  0  0  0
   -4.1243    2.4707    1.5557 F   0  0  0  0  0  0  0  0  0  0  0  0
   -5.0319    0.6996    0.5953 F   0  0  0  0  0  0  0  0  0  0  0  0
    1.2286   -1.6514    0.8207 H   0  0  0  0  0  0  0  0  0  0  0  0
    1.5403   -0.7977   -0.6985 H   0  0  0  0  0  0  0  0  0  0  0  0
   -0.6232    1.2954   -2.6785 H   0  0  0  0  0  0  0  0  0  0  0  0
    1.3387    0.8760   -4.2115 H   0  0  0  0  0  0  0  0  0  0  0  0
    6.1138    2.3868   -2.3657 H   0  0  0  0  0  0  0  0  0  0  0  0
    3.8847    1.2547   -5.6652 H   0  0  0  0  0  0  0  0  0  0  0  0
    4.0984    2.2519   -0.3075 H   0  0  0  0  0  0  0  0  0  0  0  0
    1.6995    1.7299    0.0042 H   0  0  0  0  0  0  0  0  0  0  0  0
   -2.9092    0.0460    2.2611 H   0  0  0  0  0  0  0  0  0  0  0  0
   -0.6974   -1.0884    2.1622 H   0  0  0  0  0  0  0  0  0  0  0  0
  1  2  1  0
  1 22  1  0
  1 23  1  0
  2  3  2  0
  2 17  1  0
  3  4  1  0
  3 14  1  0
  4  5  1  0
  4 24  1  0
  5  6  2  0
  5 13  1  0
  6  7  1  0
  6 25  1  0
  7  8  2  0
  7 11  1  0
  8  9  1  0
  8 12  1  0
  9 10  1  0
  9 26  1  0
 10 11  2  0
 11 27  1  0
 12 13  2  0
 12 28  1  0
 13 29  1  0
 14 15  2  0
 15 16  1  0
 15 18  1  0
 16 17  2  0
 16 30  1  0
 17 31  1  0
 18 19  1  0
 18 20  1  0
 18 21  1  0
M  END
>  <group_name>  (1) 
JNS

>  <molecule_index>  (1) 
00129

>  <conformer_index>  (1) 
01

>  <method>  (1) 
openff-1.3.0

>  <basis>  (1) 
smirnoff

>  <program>  (1) 
openmm

>  <initial_energy>  (1) 
122.24029821041266 kilocalorie / mole

>  <final_energy>  (1) 
111.2287857865171 kilocalorie / mole

$$$$
