JNS-01474-02
     RDKit          3D

 39 42  0  0  0  0  0  0  0  0999 V2000
   -1.9795    1.7009    1.2371 C   0  0  0  0  0  0  0  0  0  0  0  0
   -0.5096    1.5019    0.8403 C   0  0  0  0  0  0  0  0  0  0  0  0
   -0.0873    0.0198    0.7435 C   0  0  0  0  0  0  0  0  0  0  0  0
   -0.9297   -0.5850   -0.1458 F   0  0  0  0  0  0  0  0  0  0  0  0
   -0.2615   -0.5643    1.9669 F   0  0  0  0  0  0  0  0  0  0  0  0
    1.3815   -0.1253    0.3142 C   0  0  0  0  0  0  0  0  0  0  0  0
    2.2870    0.7773    0.6508 N   0  0  0  0  0  0  0  0  0  0  0  0
    3.4451    0.4067   -0.0078 C   0  0  0  0  0  0  0  0  0  0  0  0
    3.2574   -0.7335   -0.7605 C   0  0  0  0  0  0  0  0  0  0  0  0
    4.2262   -1.3056   -1.5040 N   0  0  0  0  0  0  0  0  0  0  0  0
    5.4533   -0.7129   -1.5063 C   0  0  0  0  0  0  0  0  0  0  0  0
    5.6912    0.4603   -0.7500 C   0  0  0  0  0  0  0  0  0  0  0  0
    4.6762    1.0361    0.0148 C   0  0  0  0  0  0  0  0  0  0  0  0
    6.6043   -1.2973   -2.3351 C   0  0  0  0  0  0  0  0  0  0  0  0
    6.2280   -2.3765   -3.0843 F   0  0  0  0  0  0  0  0  0  0  0  0
    7.6191   -1.6819   -1.5063 F   0  0  0  0  0  0  0  0  0  0  0  0
    7.0908   -0.3444   -3.1845 F   0  0  0  0  0  0  0  0  0  0  0  0
    1.9451   -1.1086   -0.5314 N   0  0  0  0  0  0  0  0  0  0  0  0
    1.3759   -2.3288   -0.9539 C   0  0  0  0  0  0  0  0  0  0  0  0
    1.6569   -2.8391   -2.2384 C   0  0  0  0  0  0  0  0  0  0  0  0
    1.0966   -4.0540   -2.6435 C   0  0  0  0  0  0  0  0  0  0  0  0
    0.2795   -4.7703   -1.8119 C   0  0  0  0  0  0  0  0  0  0  0  0
   -0.0879   -5.8982   -2.5267 N   0  0  0  0  0  0  0  0  0  0  0  0
    0.4700   -5.9131   -3.7723 N   0  0  0  0  0  0  0  0  0  0  0  0
    1.1887   -4.8178   -3.8672 C   0  0  0  0  0  0  0  0  0  0  0  0
   -0.0088   -4.3075   -0.5288 C   0  0  0  0  0  0  0  0  0  0  0  0
    0.5457   -3.0913   -0.1018 C   0  0  0  0  0  0  0  0  0  0  0  0
   -2.1816    1.2454    2.2117 H   0  0  0  0  0  0  0  0  0  0  0  0
   -2.2061    2.7695    1.3029 H   0  0  0  0  0  0  0  0  0  0  0  0
   -2.6471    1.2541    0.4936 H   0  0  0  0  0  0  0  0  0  0  0  0
    0.1202    2.0063    1.5801 H   0  0  0  0  0  0  0  0  0  0  0  0
   -0.3309    1.9844   -0.1257 H   0  0  0  0  0  0  0  0  0  0  0  0
    6.6769    0.9158   -0.7663 H   0  0  0  0  0  0  0  0  0  0  0  0
    4.8257    1.9350    0.6063 H   0  0  0  0  0  0  0  0  0  0  0  0
    2.2987   -2.2952   -2.9255 H   0  0  0  0  0  0  0  0  0  0  0  0
   -0.6975   -6.6299   -2.1609 H   0  0  0  0  0  0  0  0  0  0  0  0
    1.7675   -4.5277   -4.7390 H   0  0  0  0  0  0  0  0  0  0  0  0
   -0.6468   -4.8818    0.1356 H   0  0  0  0  0  0  0  0  0  0  0  0
    0.3367   -2.7611    0.9097 H   0  0  0  0  0  0  0  0  0  0  0  0
  1  2  1  0
  1 28  1  0
  1 29  1  0
  1 30  1  0
  2  3  1  0
  2 31  1  0
  2 32  1  0
  3  4  1  0
  3  5  1  0
  3  6  1  0
  6  7  2  0
  6 18  1  0
  7  8  1  0
  8  9  2  0
  8 13  1  0
  9 10  1  0
  9 18  1  0
 10 11  2  0
 11 12  1  0
 11 14  1  0
 12 13  2  0
 12 33  1  0
 13 34  1  0
 14 15  1  0
 14 16  1  0
 14 17  1  0
 18 19  1  0
 19 20  2  0
 19 27  1  0
 20 21  1  0
 20 35  1  0
 21 22  2  0
 21 25  1  0
 22 23  1  0
 22 26  1  0
 23 24  1  0
 23 36  1  0
 24 25  2  0
 25 37  1  0
 26 27  2  0
 26 38  1  0
 27 39  1  0
M  END
>  <group_name>  (1) 
JNS

>  <molecule_index>  (1) 
01474

>  <conformer_index>  (1) 
02

>  <method>  (1) 
openff-1.3.0

>  <basis>  (1) 
smirnoff

>  <program>  (1) 
openmm

>  <initial_energy>  (1) 
189.58477688217823 kilocalorie / mole

>  <final_energy>  (1) 
175.96836221313788 kilocalorie / mole

$$$$
