JNS-01792-01
     RDKit          3D

 40 44  0  0  0  0  0  0  0  0999 V2000
   -0.6989   -0.4943    1.1569 F   0  0  0  0  0  0  0  0  0  0  0  0
   -0.0725    0.1241    0.1111 C   0  0  0  0  0  0  0  0  0  0  0  0
   -0.3478    1.4604    0.1766 F   0  0  0  0  0  0  0  0  0  0  0  0
   -0.6117   -0.3612   -1.0467 F   0  0  0  0  0  0  0  0  0  0  0  0
    1.4467   -0.0927    0.1085 C   0  0  0  0  0  0  0  0  0  0  0  0
    2.0535   -0.7747    1.1194 N   0  0  0  0  0  0  0  0  0  0  0  0
    3.3898   -0.9416    1.0539 C   0  0  0  0  0  0  0  0  0  0  0  0
    4.1634   -0.4438    0.0165 C   0  0  0  0  0  0  0  0  0  0  0  0
    5.5385   -0.7951    0.2730 C   0  0  0  0  0  0  0  0  0  0  0  0
    5.5692   -1.4904    1.4660 C   0  0  0  0  0  0  0  0  0  0  0  0
    6.8074   -2.1228    2.0644 C   0  0  0  0  0  0  0  0  0  0  0  0
    7.7984   -1.2280    2.8022 C   0  0  0  0  0  0  0  0  0  0  0  0
    8.1960   -1.8675    1.4799 C   0  0  0  0  0  0  0  0  0  0  0  0
    4.2509   -1.5770    1.9609 N   0  0  0  0  0  0  0  0  0  0  0  0
    3.8504   -2.1992    3.1622 C   0  0  0  0  0  0  0  0  0  0  0  0
    2.6401   -2.9208    3.2307 C   0  0  0  0  0  0  0  0  0  0  0  0
    2.2573   -3.5329    4.4268 C   0  0  0  0  0  0  0  0  0  0  0  0
    3.0488   -3.4363    5.5565 C   0  0  0  0  0  0  0  0  0  0  0  0
    2.4541   -4.1140    6.6012 N   0  0  0  0  0  0  0  0  0  0  0  0
    1.2313   -4.5596    6.1884 C   0  0  0  0  0  0  0  0  0  0  0  0
    0.3969   -4.9585    6.9896 O   0  0  0  0  0  0  0  0  0  0  0  0
    0.9966   -4.3093    4.7036 C   0  0  0  0  0  0  0  0  0  0  0  0
    4.2387   -2.7173    5.5294 C   0  0  0  0  0  0  0  0  0  0  0  0
    4.6348   -2.1003    4.3328 C   0  0  0  0  0  0  0  0  0  0  0  0
    3.5819    0.2529   -1.0290 C   0  0  0  0  0  0  0  0  0  0  0  0
    2.2007    0.4242   -0.9716 C   0  0  0  0  0  0  0  0  0  0  0  0
    6.3806   -0.5739   -0.3747 H   0  0  0  0  0  0  0  0  0  0  0  0
    6.6251   -3.1227    2.4728 H   0  0  0  0  0  0  0  0  0  0  0  0
    8.2600   -1.6260    3.7113 H   0  0  0  0  0  0  0  0  0  0  0  0
    7.6024   -0.1507    2.8086 H   0  0  0  0  0  0  0  0  0  0  0  0
    8.2964   -1.2101    0.6122 H   0  0  0  0  0  0  0  0  0  0  0  0
    8.9150   -2.6922    1.5133 H   0  0  0  0  0  0  0  0  0  0  0  0
    1.9976   -3.0156    2.3601 H   0  0  0  0  0  0  0  0  0  0  0  0
    2.5560   -3.8336    7.5699 H   0  0  0  0  0  0  0  0  0  0  0  0
    0.9628   -5.2483    4.1469 H   0  0  0  0  0  0  0  0  0  0  0  0
    0.0977   -3.7097    4.5409 H   0  0  0  0  0  0  0  0  0  0  0  0
    4.8479   -2.6325    6.4236 H   0  0  0  0  0  0  0  0  0  0  0  0
    5.5471   -1.5153    4.3301 H   0  0  0  0  0  0  0  0  0  0  0  0
    4.1768    0.6451   -1.8496 H   0  0  0  0  0  0  0  0  0  0  0  0
    1.6927    0.9633   -1.7656 H   0  0  0  0  0  0  0  0  0  0  0  0
  1  2  1  0
  2  3  1  0
  2  4  1  0
  2  5  1  0
  5  6  2  0
  5 26  1  0
  6  7  1  0
  7  8  2  0
  7 14  1  0
  8  9  1  0
  8 25  1  0
  9 10  2  0
  9 27  1  0
 10 11  1  0
 10 14  1  0
 11 12  1  0
 11 13  1  0
 11 28  1  0
 12 13  1  0
 12 29  1  0
 12 30  1  0
 13 31  1  0
 13 32  1  0
 14 15  1  0
 15 16  2  0
 15 24  1  0
 16 17  1  0
 16 33  1  0
 17 18  2  0
 17 22  1  0
 18 19  1  0
 18 23  1  0
 19 20  1  0
 19 34  1  0
 20 21  2  0
 20 22  1  0
 22 35  1  0
 22 36  1  0
 23 24  2  0
 23 37  1  0
 24 38  1  0
 25 26  2  0
 25 39  1  0
 26 40  1  0
M  END
>  <group_name>  (1) 
JNS

>  <molecule_index>  (1) 
01792

>  <conformer_index>  (1) 
01

>  <method>  (1) 
openff-1.3.0

>  <basis>  (1) 
smirnoff

>  <program>  (1) 
openmm

>  <initial_energy>  (1) 
129.8734154003455 kilocalorie / mole

>  <final_energy>  (1) 
118.62658085124843 kilocalorie / mole

$$$$
