JNS-01596-05
     RDKit          3D

 37 41  0  0  0  0  0  0  0  0999 V2000
   -2.6498   -1.5056    3.3221 F   0  0  0  0  0  0  0  0  0  0  0  0
   -2.9814   -1.1612    2.0523 C   0  0  0  0  0  0  0  0  0  0  0  0
   -4.2499   -1.1391    1.4994 N   0  0  0  0  0  0  0  0  0  0  0  0
   -4.2260   -0.7476    0.1961 N   0  0  0  0  0  0  0  0  0  0  0  0
   -2.9606   -0.5284   -0.0543 C   0  0  0  0  0  0  0  0  0  0  0  0
   -2.1548   -0.7653    1.0467 C   0  0  0  0  0  0  0  0  0  0  0  0
   -0.7710   -0.5850    0.9792 C   0  0  0  0  0  0  0  0  0  0  0  0
   -0.1736   -0.1649   -0.2271 C   0  0  0  0  0  0  0  0  0  0  0  0
   -1.0132    0.0862   -1.3365 C   0  0  0  0  0  0  0  0  0  0  0  0
   -2.4021   -0.0979   -1.2545 C   0  0  0  0  0  0  0  0  0  0  0  0
    1.2216    0.0169   -0.3101 N   0  0  0  0  0  0  0  0  0  0  0  0
    2.0516   -0.2228   -1.4163 C   0  0  0  0  0  0  0  0  0  0  0  0
    3.2902    0.1550   -1.1947 N   0  0  0  0  0  0  0  0  0  0  0  0
    3.2885    0.6243    0.1077 C   0  0  0  0  0  0  0  0  0  0  0  0
    2.0340    0.5354    0.6808 C   0  0  0  0  0  0  0  0  0  0  0  0
    1.7573    0.9326    1.9394 N   0  0  0  0  0  0  0  0  0  0  0  0
    2.7834    1.4388    2.6804 C   0  0  0  0  0  0  0  0  0  0  0  0
    4.0869    1.5430    2.1364 C   0  0  0  0  0  0  0  0  0  0  0  0
    4.3525    1.1323    0.8295 C   0  0  0  0  0  0  0  0  0  0  0  0
    2.5537    1.9052    4.1238 C   0  0  0  0  0  0  0  0  0  0  0  0
    1.2696    1.7148    4.5505 F   0  0  0  0  0  0  0  0  0  0  0  0
    3.3844    1.2226    4.9665 F   0  0  0  0  0  0  0  0  0  0  0  0
    2.8463    3.2351    4.2301 F   0  0  0  0  0  0  0  0  0  0  0  0
    1.6381   -0.8776   -2.7187 C   0  0  0  0  0  0  0  0  0  0  0  0
    2.6929   -1.2479   -3.7638 C   0  0  0  0  0  0  0  0  0  0  0  0
    1.7509   -0.0795   -4.0171 C   0  0  0  0  0  0  0  0  0  0  0  0
   -5.0923   -1.3794    2.0155 H   0  0  0  0  0  0  0  0  0  0  0  0
   -0.1721   -0.7842    1.8630 H   0  0  0  0  0  0  0  0  0  0  0  0
   -0.6024    0.4562   -2.2690 H   0  0  0  0  0  0  0  0  0  0  0  0
   -3.0440    0.0997   -2.1075 H   0  0  0  0  0  0  0  0  0  0  0  0
    4.8890    1.9492    2.7455 H   0  0  0  0  0  0  0  0  0  0  0  0
    5.3396    1.2001    0.3814 H   0  0  0  0  0  0  0  0  0  0  0  0
    0.8004   -1.5727   -2.6121 H   0  0  0  0  0  0  0  0  0  0  0  0
    2.5338   -2.1642   -4.3410 H   0  0  0  0  0  0  0  0  0  0  0  0
    3.7420   -1.0179   -3.5484 H   0  0  0  0  0  0  0  0  0  0  0  0
    2.1714    0.9303   -3.9583 H   0  0  0  0  0  0  0  0  0  0  0  0
    0.9686   -0.2187   -4.7699 H   0  0  0  0  0  0  0  0  0  0  0  0
  1  2  1  0
  2  3  1  0
  2  6  2  0
  3  4  1  0
  3 27  1  0
  4  5  2  0
  5  6  1  0
  5 10  1  0
  6  7  1  0
  7  8  2  0
  7 28  1  0
  8  9  1  0
  8 11  1  0
  9 10  2  0
  9 29  1  0
 10 30  1  0
 11 12  1  0
 11 15  1  0
 12 13  2  0
 12 24  1  0
 13 14  1  0
 14 15  2  0
 14 19  1  0
 15 16  1  0
 16 17  2  0
 17 18  1  0
 17 20  1  0
 18 19  2  0
 18 31  1  0
 19 32  1  0
 20 21  1  0
 20 22  1  0
 20 23  1  0
 24 25  1  0
 24 26  1  0
 24 33  1  0
 25 26  1  0
 25 34  1  0
 25 35  1  0
 26 36  1  0
 26 37  1  0
M  END
>  <group_name>  (1) 
JNS

>  <molecule_index>  (1) 
01596

>  <conformer_index>  (1) 
05

>  <method>  (1) 
openff-1.3.0

>  <basis>  (1) 
smirnoff

>  <program>  (1) 
openmm

>  <initial_energy>  (1) 
160.9384560129485 kilocalorie / mole

>  <final_energy>  (1) 
146.84873668346222 kilocalorie / mole

$$$$
