JNS-01155-06
     RDKit          3D

 46 50  0  0  0  0  0  0  0  0999 V2000
   -0.8218   -0.2769    0.1845 F   0  0  0  0  0  0  0  0  0  0  0  0
    0.0036    0.2402   -0.7718 C   0  0  0  0  0  0  0  0  0  0  0  0
   -0.2882    1.5718   -0.8659 F   0  0  0  0  0  0  0  0  0  0  0  0
   -0.3030   -0.3400   -1.9694 F   0  0  0  0  0  0  0  0  0  0  0  0
    1.4863    0.0186   -0.4469 C   0  0  0  0  0  0  0  0  0  0  0  0
    2.4188    0.8641   -0.8449 N   0  0  0  0  0  0  0  0  0  0  0  0
    3.6257    0.4370   -0.2804 C   0  0  0  0  0  0  0  0  0  0  0  0
    3.3994   -0.7013    0.4668 C   0  0  0  0  0  0  0  0  0  0  0  0
    4.3437   -1.3844    1.1333 N   0  0  0  0  0  0  0  0  0  0  0  0
    5.6134   -0.9163    1.0726 C   0  0  0  0  0  0  0  0  0  0  0  0
    5.9134    0.2395    0.3286 C   0  0  0  0  0  0  0  0  0  0  0  0
    4.9325    0.9427   -0.3662 C   0  0  0  0  0  0  0  0  0  0  0  0
    5.2773    2.0969   -1.0998 N   0  0  0  0  0  0  0  0  0  0  0  0
    6.6585    2.3266   -1.5777 C   0  0  0  0  0  0  0  0  0  0  0  0
    6.6531    3.1620   -2.8679 C   0  0  0  0  0  0  0  0  0  0  0  0
    5.9636    4.4263   -2.7366 O   0  0  0  0  0  0  0  0  0  0  0  0
    4.8805    4.4540   -1.7769 C   0  0  0  0  0  0  0  0  0  0  0  0
    4.2478    3.0805   -1.5029 C   0  0  0  0  0  0  0  0  0  0  0  0
    6.7508   -1.6316    1.8201 C   0  0  0  0  0  0  0  0  0  0  0  0
    7.3570   -0.7632    2.6836 F   0  0  0  0  0  0  0  0  0  0  0  0
    6.3218   -2.7102    2.5421 F   0  0  0  0  0  0  0  0  0  0  0  0
    7.6916   -2.0625    0.9279 F   0  0  0  0  0  0  0  0  0  0  0  0
    2.0532   -0.9988    0.3444 N   0  0  0  0  0  0  0  0  0  0  0  0
    1.4342   -2.1729    0.8235 C   0  0  0  0  0  0  0  0  0  0  0  0
    1.7488   -2.6729    2.1041 C   0  0  0  0  0  0  0  0  0  0  0  0
    1.1332   -3.8393    2.5667 C   0  0  0  0  0  0  0  0  0  0  0  0
    0.2288   -4.5179    1.7958 C   0  0  0  0  0  0  0  0  0  0  0  0
   -0.1726   -5.6039    2.5561 N   0  0  0  0  0  0  0  0  0  0  0  0
    0.4483   -5.6291    3.7712 N   0  0  0  0  0  0  0  0  0  0  0  0
    1.2402   -4.5817    3.8026 C   0  0  0  0  0  0  0  0  0  0  0  0
   -0.0956   -4.0649    0.5178 C   0  0  0  0  0  0  0  0  0  0  0  0
    0.5131   -2.8971    0.0331 C   0  0  0  0  0  0  0  0  0  0  0  0
    6.9399    0.5829    0.3297 H   0  0  0  0  0  0  0  0  0  0  0  0
    7.2367    2.8488   -0.8087 H   0  0  0  0  0  0  0  0  0  0  0  0
    7.1514    1.3733   -1.7936 H   0  0  0  0  0  0  0  0  0  0  0  0
    6.1762    2.5810   -3.6635 H   0  0  0  0  0  0  0  0  0  0  0  0
    7.6870    3.3493   -3.1727 H   0  0  0  0  0  0  0  0  0  0  0  0
    4.1023    5.1344   -2.1351 H   0  0  0  0  0  0  0  0  0  0  0  0
    5.2601    4.8586   -0.8337 H   0  0  0  0  0  0  0  0  0  0  0  0
    3.7299    2.7305   -2.4019 H   0  0  0  0  0  0  0  0  0  0  0  0
    3.5069    3.2019   -0.7063 H   0  0  0  0  0  0  0  0  0  0  0  0
    2.4606   -2.1578    2.7432 H   0  0  0  0  0  0  0  0  0  0  0  0
   -0.8471   -6.3016    2.2409 H   0  0  0  0  0  0  0  0  0  0  0  0
    1.8817   -4.3121    4.6363 H   0  0  0  0  0  0  0  0  0  0  0  0
   -0.8026   -4.6113   -0.0987 H   0  0  0  0  0  0  0  0  0  0  0  0
    0.2751   -2.5786   -0.9758 H   0  0  0  0  0  0  0  0  0  0  0  0
  1  2  1  0
  2  3  1  0
  2  4  1  0
  2  5  1  0
  5  6  2  0
  5 23  1  0
  6  7  1  0
  7  8  2  0
  7 12  1  0
  8  9  1  0
  8 23  1  0
  9 10  2  0
 10 11  1  0
 10 19  1  0
 11 12  2  0
 11 33  1  0
 12 13  1  0
 13 14  1  0
 13 18  1  0
 14 15  1  0
 14 34  1  0
 14 35  1  0
 15 16  1  0
 15 36  1  0
 15 37  1  0
 16 17  1  0
 17 18  1  0
 17 38  1  0
 17 39  1  0
 18 40  1  0
 18 41  1  0
 19 20  1  0
 19 21  1  0
 19 22  1  0
 23 24  1  0
 24 25  2  0
 24 32  1  0
 25 26  1  0
 25 42  1  0
 26 27  2  0
 26 30  1  0
 27 28  1  0
 27 31  1  0
 28 29  1  0
 28 43  1  0
 29 30  2  0
 30 44  1  0
 31 32  2  0
 31 45  1  0
 32 46  1  0
M  END
>  <group_name>  (1) 
JNS

>  <molecule_index>  (1) 
01155

>  <conformer_index>  (1) 
06

>  <method>  (1) 
openff-1.3.0

>  <basis>  (1) 
smirnoff

>  <program>  (1) 
openmm

>  <initial_energy>  (1) 
215.4088239527246 kilocalorie / mole

>  <final_energy>  (1) 
194.1697727064411 kilocalorie / mole

$$$$
