JNS-01861-05
     RDKit          3D

 34 37  0  0  0  0  0  0  0  0999 V2000
   -2.8023   -2.3562   -1.1533 C   0  0  0  0  0  0  0  0  0  0  0  0
   -2.1126   -1.2222   -0.4371 C   0  0  0  0  0  0  0  0  0  0  0  0
   -0.7093   -1.1749   -0.3435 C   0  0  0  0  0  0  0  0  0  0  0  0
   -0.0358   -0.1161    0.3132 C   0  0  0  0  0  0  0  0  0  0  0  0
   -0.8235    0.9080    0.8812 C   0  0  0  0  0  0  0  0  0  0  0  0
   -2.2137    0.8576    0.7814 C   0  0  0  0  0  0  0  0  0  0  0  0
   -2.8554   -0.1846    0.1366 C   0  0  0  0  0  0  0  0  0  0  0  0
   -4.1581   -0.0407    0.1556 N   0  0  0  0  0  0  0  0  0  0  0  0
   -4.3738    1.1211    0.8261 N   0  0  0  0  0  0  0  0  0  0  0  0
   -3.1806    1.7017    1.2289 C   0  0  0  0  0  0  0  0  0  0  0  0
    1.3770   -0.1081    0.3939 N   0  0  0  0  0  0  0  0  0  0  0  0
    2.1826   -1.2449    0.2143 C   0  0  0  0  0  0  0  0  0  0  0  0
    3.5056   -0.8933    0.3536 C   0  0  0  0  0  0  0  0  0  0  0  0
    3.5282    0.5224    0.6281 C   0  0  0  0  0  0  0  0  0  0  0  0
    2.2183    0.9911    0.6527 C   0  0  0  0  0  0  0  0  0  0  0  0
    1.9208    2.2891    0.8690 N   0  0  0  0  0  0  0  0  0  0  0  0
    2.9468    3.1591    1.0812 C   0  0  0  0  0  0  0  0  0  0  0  0
    4.2888    2.7139    1.0710 C   0  0  0  0  0  0  0  0  0  0  0  0
    4.5968    1.3763    0.8400 C   0  0  0  0  0  0  0  0  0  0  0  0
    2.6698    4.6450    1.3466 C   0  0  0  0  0  0  0  0  0  0  0  0
    1.3357    4.9358    1.4180 F   0  0  0  0  0  0  0  0  0  0  0  0
    3.2433    5.0204    2.5287 F   0  0  0  0  0  0  0  0  0  0  0  0
    3.2198    5.4033    0.3525 F   0  0  0  0  0  0  0  0  0  0  0  0
   -3.4504   -1.9599   -1.9406 H   0  0  0  0  0  0  0  0  0  0  0  0
   -2.0757   -3.0338   -1.6104 H   0  0  0  0  0  0  0  0  0  0  0  0
   -3.4143   -2.9234   -0.4460 H   0  0  0  0  0  0  0  0  0  0  0  0
   -0.1489   -1.9742   -0.8128 H   0  0  0  0  0  0  0  0  0  0  0  0
   -0.3862    1.7417    1.4165 H   0  0  0  0  0  0  0  0  0  0  0  0
   -5.2982    1.5116    1.0009 H   0  0  0  0  0  0  0  0  0  0  0  0
   -3.0384    2.6281    1.7770 H   0  0  0  0  0  0  0  0  0  0  0  0
    1.8297   -2.2525    0.0181 H   0  0  0  0  0  0  0  0  0  0  0  0
    4.3651   -1.5539    0.2768 H   0  0  0  0  0  0  0  0  0  0  0  0
    5.0886    3.4277    1.2434 H   0  0  0  0  0  0  0  0  0  0  0  0
    5.6221    1.0165    0.8233 H   0  0  0  0  0  0  0  0  0  0  0  0
  1  2  1  0
  1 24  1  0
  1 25  1  0
  1 26  1  0
  2  3  2  0
  2  7  1  0
  3  4  1  0
  3 27  1  0
  4  5  2  0
  4 11  1  0
  5  6  1  0
  5 28  1  0
  6  7  1  0
  6 10  2  0
  7  8  2  0
  8  9  1  0
  9 10  1  0
  9 29  1  0
 10 30  1  0
 11 12  1  0
 11 15  1  0
 12 13  2  0
 12 31  1  0
 13 14  1  0
 13 32  1  0
 14 15  2  0
 14 19  1  0
 15 16  1  0
 16 17  2  0
 17 18  1  0
 17 20  1  0
 18 19  2  0
 18 33  1  0
 19 34  1  0
 20 21  1  0
 20 22  1  0
 20 23  1  0
M  END
>  <group_name>  (1) 
JNS

>  <molecule_index>  (1) 
01861

>  <conformer_index>  (1) 
05

>  <method>  (1) 
openff-1.3.0

>  <basis>  (1) 
smirnoff

>  <program>  (1) 
openmm

>  <initial_energy>  (1) 
147.8494654077055 kilocalorie / mole

>  <final_energy>  (1) 
134.0070187095411 kilocalorie / mole

$$$$
