JNS-01581-06
     RDKit          3D

 40 44  0  0  0  0  0  0  0  0999 V2000
   -0.6801    0.4601   -0.4985 F   0  0  0  0  0  0  0  0  0  0  0  0
   -0.0373   -0.7308   -0.3122 C   0  0  0  0  0  0  0  0  0  0  0  0
   -0.6153   -1.3582    0.7557 F   0  0  0  0  0  0  0  0  0  0  0  0
   -0.2399   -1.4989   -1.4229 F   0  0  0  0  0  0  0  0  0  0  0  0
    1.4647   -0.4849   -0.1195 C   0  0  0  0  0  0  0  0  0  0  0  0
    2.1080   -0.9419    0.9924 N   0  0  0  0  0  0  0  0  0  0  0  0
    3.4263   -0.6804    1.0991 C   0  0  0  0  0  0  0  0  0  0  0  0
    4.1514    0.0140    0.1510 C   0  0  0  0  0  0  0  0  0  0  0  0
    3.5320    0.4923   -0.9887 C   0  0  0  0  0  0  0  0  0  0  0  0
    2.1664    0.2343   -1.1178 C   0  0  0  0  0  0  0  0  0  0  0  0
    5.4799    0.1397    0.5183 N   0  0  0  0  0  0  0  0  0  0  0  0
    5.5702   -0.4679    1.6811 C   0  0  0  0  0  0  0  0  0  0  0  0
    6.8588   -0.4553    2.4859 C   0  0  0  0  0  0  0  0  0  0  0  0
    8.0399   -1.1843    1.8402 C   0  0  0  0  0  0  0  0  0  0  0  0
    8.8380    0.1127    1.8094 C   0  0  0  0  0  0  0  0  0  0  0  0
    7.6691    0.8463    2.4539 C   0  0  0  0  0  0  0  0  0  0  0  0
    4.3430   -1.0303    2.0726 N   0  0  0  0  0  0  0  0  0  0  0  0
    4.0936   -1.8924    3.1596 C   0  0  0  0  0  0  0  0  0  0  0  0
    2.8629   -1.8421    3.8461 C   0  0  0  0  0  0  0  0  0  0  0  0
    2.6310   -2.7067    4.9195 C   0  0  0  0  0  0  0  0  0  0  0  0
    3.5794   -3.6120    5.3138 C   0  0  0  0  0  0  0  0  0  0  0  0
    3.0291   -4.2942    6.3853 N   0  0  0  0  0  0  0  0  0  0  0  0
    1.7717   -3.8490    6.6761 N   0  0  0  0  0  0  0  0  0  0  0  0
    1.5068   -2.8984    5.8089 C   0  0  0  0  0  0  0  0  0  0  0  0
    4.8035   -3.7086    4.6517 C   0  0  0  0  0  0  0  0  0  0  0  0
    5.9978   -4.8777    5.1466 Cl  0  0  0  0  0  0  0  0  0  0  0  0
    5.0486   -2.8497    3.5708 C   0  0  0  0  0  0  0  0  0  0  0  0
    4.0996    1.0407   -1.7351 H   0  0  0  0  0  0  0  0  0  0  0  0
    1.6335    0.5891   -1.9949 H   0  0  0  0  0  0  0  0  0  0  0  0
    6.6882   -0.7741    3.5174 H   0  0  0  0  0  0  0  0  0  0  0  0
    8.4821   -1.9599    2.4740 H   0  0  0  0  0  0  0  0  0  0  0  0
    7.8289   -1.5901    0.8446 H   0  0  0  0  0  0  0  0  0  0  0  0
    9.7440    0.0930    2.4237 H   0  0  0  0  0  0  0  0  0  0  0  0
    9.0727    0.4616    0.7983 H   0  0  0  0  0  0  0  0  0  0  0  0
    7.2473    1.6383    1.8257 H   0  0  0  0  0  0  0  0  0  0  0  0
    7.8958    1.2475    3.4471 H   0  0  0  0  0  0  0  0  0  0  0  0
    2.0926   -1.1323    3.5578 H   0  0  0  0  0  0  0  0  0  0  0  0
    3.5100   -5.0451    6.8827 H   0  0  0  0  0  0  0  0  0  0  0  0
    0.5780   -2.3371    5.7669 H   0  0  0  0  0  0  0  0  0  0  0  0
    5.9870   -2.9618    3.0393 H   0  0  0  0  0  0  0  0  0  0  0  0
  1  2  1  0
  2  3  1  0
  2  4  1  0
  2  5  1  0
  5  6  2  0
  5 10  1  0
  6  7  1  0
  7  8  2  0
  7 17  1  0
  8  9  1  0
  8 11  1  0
  9 10  2  0
  9 28  1  0
 10 29  1  0
 11 12  2  0
 12 13  1  0
 12 17  1  0
 13 14  1  0
 13 16  1  0
 13 30  1  0
 14 15  1  0
 14 31  1  0
 14 32  1  0
 15 16  1  0
 15 33  1  0
 15 34  1  0
 16 35  1  0
 16 36  1  0
 17 18  1  0
 18 19  2  0
 18 27  1  0
 19 20  1  0
 19 37  1  0
 20 21  2  0
 20 24  1  0
 21 22  1  0
 21 25  1  0
 22 23  1  0
 22 38  1  0
 23 24  2  0
 24 39  1  0
 25 26  1  0
 25 27  2  0
 27 40  1  0
M  END
>  <group_name>  (1) 
JNS

>  <molecule_index>  (1) 
01581

>  <conformer_index>  (1) 
06

>  <method>  (1) 
openff-1.3.0

>  <basis>  (1) 
smirnoff

>  <program>  (1) 
openmm

>  <initial_energy>  (1) 
191.09110867778423 kilocalorie / mole

>  <final_energy>  (1) 
178.28695033781506 kilocalorie / mole

$$$$
