JNS-01792-00
     RDKit          3D

 40 44  0  0  0  0  0  0  0  0999 V2000
    0.2288   -1.5347   -2.5956 F   0  0  0  0  0  0  0  0  0  0  0  0
    0.1906   -1.0607   -1.3147 C   0  0  0  0  0  0  0  0  0  0  0  0
   -0.4916   -1.9673   -0.5524 F   0  0  0  0  0  0  0  0  0  0  0  0
   -0.5129    0.1101   -1.3192 F   0  0  0  0  0  0  0  0  0  0  0  0
    1.6178   -0.8068   -0.8112 C   0  0  0  0  0  0  0  0  0  0  0  0
    2.0685   -1.3993    0.3297 N   0  0  0  0  0  0  0  0  0  0  0  0
    3.3356   -1.1441    0.7139 C   0  0  0  0  0  0  0  0  0  0  0  0
    4.1850   -0.3065    0.0074 C   0  0  0  0  0  0  0  0  0  0  0  0
    5.4475   -0.2566    0.7028 C   0  0  0  0  0  0  0  0  0  0  0  0
    5.3321   -1.0583    1.8214 C   0  0  0  0  0  0  0  0  0  0  0  0
    6.4590   -1.3590    2.7866 C   0  0  0  0  0  0  0  0  0  0  0  0
    7.7965   -0.6244    2.7071 C   0  0  0  0  0  0  0  0  0  0  0  0
    6.8217   -0.3090    3.8321 C   0  0  0  0  0  0  0  0  0  0  0  0
    4.0301   -1.6015    1.8437 N   0  0  0  0  0  0  0  0  0  0  0  0
    3.5020   -2.4609    2.8307 C   0  0  0  0  0  0  0  0  0  0  0  0
    3.8164   -2.2833    4.1937 C   0  0  0  0  0  0  0  0  0  0  0  0
    3.2869   -3.1495    5.1541 C   0  0  0  0  0  0  0  0  0  0  0  0
    2.4412   -4.1802    4.7860 C   0  0  0  0  0  0  0  0  0  0  0  0
    2.0437   -4.8816    5.9060 N   0  0  0  0  0  0  0  0  0  0  0  0
    2.5353   -4.2484    7.0107 C   0  0  0  0  0  0  0  0  0  0  0  0
    2.1195   -4.5007    8.1334 O   0  0  0  0  0  0  0  0  0  0  0  0
    3.4707   -3.1008    6.6486 C   0  0  0  0  0  0  0  0  0  0  0  0
    2.0933   -4.3717    3.4538 C   0  0  0  0  0  0  0  0  0  0  0  0
    2.6250   -3.5127    2.4803 C   0  0  0  0  0  0  0  0  0  0  0  0
    3.7630    0.3116   -1.1572 C   0  0  0  0  0  0  0  0  0  0  0  0
    2.4567    0.0492   -1.5634 C   0  0  0  0  0  0  0  0  0  0  0  0
    6.3276    0.2902    0.3805 H   0  0  0  0  0  0  0  0  0  0  0  0
    6.4959   -2.4107    3.0904 H   0  0  0  0  0  0  0  0  0  0  0  0
    8.6974   -1.1910    2.9630 H   0  0  0  0  0  0  0  0  0  0  0  0
    7.9408    0.1380    1.9369 H   0  0  0  0  0  0  0  0  0  0  0  0
    6.2921    0.6486    3.7946 H   0  0  0  0  0  0  0  0  0  0  0  0
    7.0804   -0.6624    4.8352 H   0  0  0  0  0  0  0  0  0  0  0  0
    4.4412   -1.4588    4.5164 H   0  0  0  0  0  0  0  0  0  0  0  0
    1.1423   -5.3401    5.9771 H   0  0  0  0  0  0  0  0  0  0  0  0
    3.1225   -2.1590    7.0791 H   0  0  0  0  0  0  0  0  0  0  0  0
    4.4980   -3.3261    6.9428 H   0  0  0  0  0  0  0  0  0  0  0  0
    1.4226   -5.1762    3.1688 H   0  0  0  0  0  0  0  0  0  0  0  0
    2.3556   -3.6791    1.4413 H   0  0  0  0  0  0  0  0  0  0  0  0
    4.4203    0.9679   -1.7213 H   0  0  0  0  0  0  0  0  0  0  0  0
    2.0735    0.5082   -2.4698 H   0  0  0  0  0  0  0  0  0  0  0  0
  1  2  1  0
  2  3  1  0
  2  4  1  0
  2  5  1  0
  5  6  2  0
  5 26  1  0
  6  7  1  0
  7  8  2  0
  7 14  1  0
  8  9  1  0
  8 25  1  0
  9 10  2  0
  9 27  1  0
 10 11  1  0
 10 14  1  0
 11 12  1  0
 11 13  1  0
 11 28  1  0
 12 13  1  0
 12 29  1  0
 12 30  1  0
 13 31  1  0
 13 32  1  0
 14 15  1  0
 15 16  2  0
 15 24  1  0
 16 17  1  0
 16 33  1  0
 17 18  2  0
 17 22  1  0
 18 19  1  0
 18 23  1  0
 19 20  1  0
 19 34  1  0
 20 21  2  0
 20 22  1  0
 22 35  1  0
 22 36  1  0
 23 24  2  0
 23 37  1  0
 24 38  1  0
 25 26  2  0
 25 39  1  0
 26 40  1  0
M  END
>  <group_name>  (1) 
JNS

>  <molecule_index>  (1) 
01792

>  <conformer_index>  (1) 
00

>  <method>  (1) 
openff-1.3.0

>  <basis>  (1) 
smirnoff

>  <program>  (1) 
openmm

>  <initial_energy>  (1) 
129.75722583817142 kilocalorie / mole

>  <final_energy>  (1) 
118.21216152137391 kilocalorie / mole

$$$$
