JNS-01845-03
     RDKit          3D

 36 39  0  0  0  0  0  0  0  0999 V2000
    0.1324   -0.4045   -1.0730 C   0  0  0  0  0  0  0  0  0  0  0  0
    1.6086   -0.4533   -0.7698 C   0  0  0  0  0  0  0  0  0  0  0  0
    2.4580    0.5982   -1.0402 C   0  0  0  0  0  0  0  0  0  0  0  0
    3.7483    0.2539   -0.4933 C   0  0  0  0  0  0  0  0  0  0  0  0
    3.6444   -0.9921    0.1084 C   0  0  0  0  0  0  0  0  0  0  0  0
    4.6816   -1.6078    0.7095 N   0  0  0  0  0  0  0  0  0  0  0  0
    5.8806   -0.9608    0.7288 C   0  0  0  0  0  0  0  0  0  0  0  0
    6.0255    0.3147    0.1333 C   0  0  0  0  0  0  0  0  0  0  0  0
    4.9497    0.9418   -0.4911 C   0  0  0  0  0  0  0  0  0  0  0  0
    7.1040   -1.5965    1.4025 C   0  0  0  0  0  0  0  0  0  0  0  0
    6.8260   -2.7992    1.9890 F   0  0  0  0  0  0  0  0  0  0  0  0
    8.0910   -1.7896    0.4783 F   0  0  0  0  0  0  0  0  0  0  0  0
    7.5873   -0.7587    2.3673 F   0  0  0  0  0  0  0  0  0  0  0  0
    2.3278   -1.4428   -0.0690 N   0  0  0  0  0  0  0  0  0  0  0  0
    1.8314   -2.6953    0.3477 C   0  0  0  0  0  0  0  0  0  0  0  0
    0.9172   -3.4136   -0.4497 C   0  0  0  0  0  0  0  0  0  0  0  0
    0.4328   -4.6505   -0.0173 C   0  0  0  0  0  0  0  0  0  0  0  0
    0.8468   -5.1895    1.1895 C   0  0  0  0  0  0  0  0  0  0  0  0
    0.2307   -6.4145    1.3785 N   0  0  0  0  0  0  0  0  0  0  0  0
   -0.4861   -6.7271    0.2606 C   0  0  0  0  0  0  0  0  0  0  0  0
   -0.9201   -7.8533    0.0614 O   0  0  0  0  0  0  0  0  0  0  0  0
   -0.5078   -5.5795   -0.7416 C   0  0  0  0  0  0  0  0  0  0  0  0
    1.7686   -4.5165    1.9951 C   0  0  0  0  0  0  0  0  0  0  0  0
    2.1844   -5.0518    3.1714 F   0  0  0  0  0  0  0  0  0  0  0  0
    2.2532   -3.2739    1.5661 C   0  0  0  0  0  0  0  0  0  0  0  0
   -0.0630   -0.8254   -2.0633 H   0  0  0  0  0  0  0  0  0  0  0  0
   -0.2213    0.6307   -1.0589 H   0  0  0  0  0  0  0  0  0  0  0  0
   -0.4331   -0.9642   -0.3221 H   0  0  0  0  0  0  0  0  0  0  0  0
    2.1981    1.5270   -1.5406 H   0  0  0  0  0  0  0  0  0  0  0  0
    6.9920    0.8091    0.1636 H   0  0  0  0  0  0  0  0  0  0  0  0
    5.0443    1.9199   -0.9554 H   0  0  0  0  0  0  0  0  0  0  0  0
    0.6053   -3.0335   -1.4164 H   0  0  0  0  0  0  0  0  0  0  0  0
    0.6391   -7.1603    1.9326 H   0  0  0  0  0  0  0  0  0  0  0  0
   -1.5118   -5.1593   -0.8312 H   0  0  0  0  0  0  0  0  0  0  0  0
   -0.1135   -5.8974   -1.7095 H   0  0  0  0  0  0  0  0  0  0  0  0
    2.9617   -2.7597    2.2076 H   0  0  0  0  0  0  0  0  0  0  0  0
  1  2  1  0
  1 26  1  0
  1 27  1  0
  1 28  1  0
  2  3  2  0
  2 14  1  0
  3  4  1  0
  3 29  1  0
  4  5  2  0
  4  9  1  0
  5  6  1  0
  5 14  1  0
  6  7  2  0
  7  8  1  0
  7 10  1  0
  8  9  2  0
  8 30  1  0
  9 31  1  0
 10 11  1  0
 10 12  1  0
 10 13  1  0
 14 15  1  0
 15 16  2  0
 15 25  1  0
 16 17  1  0
 16 32  1  0
 17 18  2  0
 17 22  1  0
 18 19  1  0
 18 23  1  0
 19 20  1  0
 19 33  1  0
 20 21  2  0
 20 22  1  0
 22 34  1  0
 22 35  1  0
 23 24  1  0
 23 25  2  0
 25 36  1  0
M  END
>  <group_name>  (1) 
JNS

>  <molecule_index>  (1) 
01845

>  <conformer_index>  (1) 
03

>  <method>  (1) 
openff-1.3.0

>  <basis>  (1) 
smirnoff

>  <program>  (1) 
openmm

>  <initial_energy>  (1) 
112.5191925435158 kilocalorie / mole

>  <final_energy>  (1) 
100.91847457176156 kilocalorie / mole

$$$$
