JNS-02158-05
     RDKit          3D

 42 45  0  0  0  0  0  0  0  0999 V2000
   -2.0392    2.2694    1.4053 C   0  0  0  0  0  0  0  0  0  0  0  0
   -1.6768    1.8481   -0.0230 C   0  0  2  0  0  0  0  0  0  0  0  0
   -0.2404    1.5159   -0.1044 N   0  0  0  0  0  0  0  0  0  0  0  0
    0.6827    2.6012   -0.4620 C   0  0  0  0  0  0  0  0  0  0  0  0
    0.3038    3.1858   -1.8275 C   0  0  0  0  0  0  0  0  0  0  0  0
   -1.1635    3.5550   -1.8402 C   0  0  0  0  0  0  0  0  0  0  0  0
   -2.0474    2.9489   -0.9993 C   0  0  0  0  0  0  0  0  0  0  0  0
   -3.3052    3.4985   -1.1602 N   0  0  0  0  0  0  0  0  0  0  0  0
   -3.2135    4.4341   -2.0698 N   0  0  0  0  0  0  0  0  0  0  0  0
   -1.9266    4.5010   -2.5183 N   0  0  0  0  0  0  0  0  0  0  0  0
   -1.4997    5.3679   -3.5532 C   0  0  0  0  0  0  0  0  0  0  0  0
   -0.2236    5.2893   -3.9918 N   0  0  0  0  0  0  0  0  0  0  0  0
    0.1567    6.1067   -4.9791 C   0  0  0  0  0  0  0  0  0  0  0  0
   -0.7098    7.0180   -5.5483 C   0  0  0  0  0  0  0  0  0  0  0  0
   -0.3124    7.8453   -6.5501 F   0  0  0  0  0  0  0  0  0  0  0  0
   -1.9978    7.0509   -5.0528 C   0  0  0  0  0  0  0  0  0  0  0  0
   -2.3930    6.2403   -4.0684 N   0  0  0  0  0  0  0  0  0  0  0  0
    0.1952    0.2418    0.2529 C   0  0  0  0  0  0  0  0  0  0  0  0
   -0.6113   -0.5501    0.7331 O   0  0  0  0  0  0  0  0  0  0  0  0
    1.5958   -0.1969    0.1865 C   0  0  0  0  0  0  0  0  0  0  0  0
    2.2252   -0.7049    1.3266 C   0  0  0  0  0  0  0  0  0  0  0  0
    3.5485   -1.1369    1.2661 C   0  0  0  0  0  0  0  0  0  0  0  0
    4.2741   -1.0939    0.1352 N   0  0  0  0  0  0  0  0  0  0  0  0
    3.6783   -0.6381   -1.0052 C   0  0  0  0  0  0  0  0  0  0  0  0
    2.3319   -0.1944   -1.0067 C   0  0  0  0  0  0  0  0  0  0  0  0
    1.7395    0.2118   -2.1608 F   0  0  0  0  0  0  0  0  0  0  0  0
    4.4680   -0.5918   -2.3171 C   0  0  0  0  0  0  0  0  0  0  0  0
    3.8817   -1.3955   -3.2519 F   0  0  0  0  0  0  0  0  0  0  0  0
    4.5038    0.6880   -2.7940 F   0  0  0  0  0  0  0  0  0  0  0  0
    5.7605   -1.0074   -2.1648 F   0  0  0  0  0  0  0  0  0  0  0  0
   -1.8027    1.4690    2.1125 H   0  0  0  0  0  0  0  0  0  0  0  0
   -3.1107    2.4804    1.4768 H   0  0  0  0  0  0  0  0  0  0  0  0
   -1.4870    3.1691    1.6926 H   0  0  0  0  0  0  0  0  0  0  0  0
   -2.2745    0.9696   -0.2925 H   0  0  0  0  0  0  0  0  0  0  0  0
    0.6140    3.3880    0.2968 H   0  0  0  0  0  0  0  0  0  0  0  0
    1.7267    2.2792   -0.4799 H   0  0  0  0  0  0  0  0  0  0  0  0
    0.9269    4.0634   -2.0199 H   0  0  0  0  0  0  0  0  0  0  0  0
    0.4921    2.4550   -2.6191 H   0  0  0  0  0  0  0  0  0  0  0  0
    1.1786    6.0527   -5.3437 H   0  0  0  0  0  0  0  0  0  0  0  0
   -2.7099    7.7548   -5.4742 H   0  0  0  0  0  0  0  0  0  0  0  0
    1.6849   -0.7721    2.2670 H   0  0  0  0  0  0  0  0  0  0  0  0
    4.0152   -1.5216    2.1685 H   0  0  0  0  0  0  0  0  0  0  0  0
  1  2  1  0
  1 31  1  0
  1 32  1  0
  1 33  1  0
  2  3  1  0
  2  7  1  0
  2 34  1  6
  3  4  1  0
  3 18  1  0
  4  5  1  0
  4 35  1  0
  4 36  1  0
  5  6  1  0
  5 37  1  0
  5 38  1  0
  6  7  2  0
  6 10  1  0
  7  8  1  0
  8  9  2  0
  9 10  1  0
 10 11  1  0
 11 12  2  0
 11 17  1  0
 12 13  1  0
 13 14  2  0
 13 39  1  0
 14 15  1  0
 14 16  1  0
 16 17  2  0
 16 40  1  0
 18 19  2  0
 18 20  1  0
 20 21  2  0
 20 25  1  0
 21 22  1  0
 21 41  1  0
 22 23  2  0
 22 42  1  0
 23 24  1  0
 24 25  2  0
 24 27  1  0
 25 26  1  0
 27 28  1  0
 27 29  1  0
 27 30  1  0
M  END
>  <group_name>  (1) 
JNS

>  <molecule_index>  (1) 
02158

>  <conformer_index>  (1) 
05

>  <method>  (1) 
openff-1.3.0

>  <basis>  (1) 
smirnoff

>  <program>  (1) 
openmm

>  <initial_energy>  (1) 
87.14128514806329 kilocalorie / mole

>  <final_energy>  (1) 
76.7196322119437 kilocalorie / mole

$$$$
