JNS-01596-02
     RDKit          3D

 37 41  0  0  0  0  0  0  0  0999 V2000
   -3.4012    1.9094    2.0755 F   0  0  0  0  0  0  0  0  0  0  0  0
   -3.3999    0.7483    1.3737 C   0  0  0  0  0  0  0  0  0  0  0  0
   -4.4747   -0.0964    1.1583 N   0  0  0  0  0  0  0  0  0  0  0  0
   -4.1260   -1.1760    0.4066 N   0  0  0  0  0  0  0  0  0  0  0  0
   -2.8525   -1.0035    0.1611 C   0  0  0  0  0  0  0  0  0  0  0  0
   -2.3568    0.1577    0.7297 C   0  0  0  0  0  0  0  0  0  0  0  0
   -1.0148    0.5170    0.5814 C   0  0  0  0  0  0  0  0  0  0  0  0
   -0.1446   -0.3036   -0.1656 C   0  0  0  0  0  0  0  0  0  0  0  0
   -0.6646   -1.4926   -0.7266 C   0  0  0  0  0  0  0  0  0  0  0  0
   -2.0146   -1.8420   -0.5688 C   0  0  0  0  0  0  0  0  0  0  0  0
    1.2105    0.0491   -0.3266 N   0  0  0  0  0  0  0  0  0  0  0  0
    2.0256   -0.1741   -1.4472 C   0  0  0  0  0  0  0  0  0  0  0  0
    3.2719    0.1793   -1.2287 N   0  0  0  0  0  0  0  0  0  0  0  0
    3.2750    0.6847    0.0602 C   0  0  0  0  0  0  0  0  0  0  0  0
    2.0178    0.6324    0.6320 C   0  0  0  0  0  0  0  0  0  0  0  0
    1.7478    1.0549    1.8837 N   0  0  0  0  0  0  0  0  0  0  0  0
    2.7793    1.5695    2.6114 C   0  0  0  0  0  0  0  0  0  0  0  0
    4.0832    1.6484    2.0640 C   0  0  0  0  0  0  0  0  0  0  0  0
    4.3443    1.2002    0.7685 C   0  0  0  0  0  0  0  0  0  0  0  0
    2.5537    2.0798    4.0405 C   0  0  0  0  0  0  0  0  0  0  0  0
    2.9365    3.3882    4.1286 F   0  0  0  0  0  0  0  0  0  0  0  0
    1.2501    1.9932    4.4410 F   0  0  0  0  0  0  0  0  0  0  0  0
    3.3176    1.3580    4.9130 F   0  0  0  0  0  0  0  0  0  0  0  0
    1.5722   -0.7112   -2.7895 C   0  0  0  0  0  0  0  0  0  0  0  0
    2.5341   -0.7221   -3.9798 C   0  0  0  0  0  0  0  0  0  0  0  0
    2.1578   -2.0288   -3.2958 C   0  0  0  0  0  0  0  0  0  0  0  0
   -5.4061    0.0734    1.5290 H   0  0  0  0  0  0  0  0  0  0  0  0
   -0.6641    1.4371    1.0395 H   0  0  0  0  0  0  0  0  0  0  0  0
   -0.0210   -2.1768   -1.2679 H   0  0  0  0  0  0  0  0  0  0  0  0
   -2.4093   -2.7578   -0.9978 H   0  0  0  0  0  0  0  0  0  0  0  0
    4.8894    2.0623    2.6622 H   0  0  0  0  0  0  0  0  0  0  0  0
    5.3323    1.2447    0.3194 H   0  0  0  0  0  0  0  0  0  0  0  0
    0.5254   -0.4909   -3.0176 H   0  0  0  0  0  0  0  0  0  0  0  0
    2.1141   -0.5277   -4.9717 H   0  0  0  0  0  0  0  0  0  0  0  0
    3.5513   -0.3444   -3.8301 H   0  0  0  0  0  0  0  0  0  0  0  0
    1.4917   -2.7066   -3.8389 H   0  0  0  0  0  0  0  0  0  0  0  0
    2.9224   -2.5151   -2.6802 H   0  0  0  0  0  0  0  0  0  0  0  0
  1  2  1  0
  2  3  1  0
  2  6  2  0
  3  4  1  0
  3 27  1  0
  4  5  2  0
  5  6  1  0
  5 10  1  0
  6  7  1  0
  7  8  2  0
  7 28  1  0
  8  9  1  0
  8 11  1  0
  9 10  2  0
  9 29  1  0
 10 30  1  0
 11 12  1  0
 11 15  1  0
 12 13  2  0
 12 24  1  0
 13 14  1  0
 14 15  2  0
 14 19  1  0
 15 16  1  0
 16 17  2  0
 17 18  1  0
 17 20  1  0
 18 19  2  0
 18 31  1  0
 19 32  1  0
 20 21  1  0
 20 22  1  0
 20 23  1  0
 24 25  1  0
 24 26  1  0
 24 33  1  0
 25 26  1  0
 25 34  1  0
 25 35  1  0
 26 36  1  0
 26 37  1  0
M  END
>  <group_name>  (1) 
JNS

>  <molecule_index>  (1) 
01596

>  <conformer_index>  (1) 
02

>  <method>  (1) 
openff-1.3.0

>  <basis>  (1) 
smirnoff

>  <program>  (1) 
openmm

>  <initial_energy>  (1) 
160.95573876895602 kilocalorie / mole

>  <final_energy>  (1) 
146.8487415861065 kilocalorie / mole

$$$$
