JNS-01384-09
     RDKit          3D

 36 39  0  0  0  0  0  0  0  0999 V2000
   -0.5925    0.6898    0.8219 C   0  0  0  0  0  0  0  0  0  0  0  0
    0.0523    0.3134   -0.5145 C   0  0  0  0  0  0  0  0  0  0  0  0
    1.5269    0.0200   -0.3558 C   0  0  0  0  0  0  0  0  0  0  0  0
    2.4093    0.8289   -0.8953 N   0  0  0  0  0  0  0  0  0  0  0  0
    3.6388    0.3429   -0.4830 C   0  0  0  0  0  0  0  0  0  0  0  0
    3.4994   -0.7721    0.3197 C   0  0  0  0  0  0  0  0  0  0  0  0
    4.5345   -1.4429    0.8623 N   0  0  0  0  0  0  0  0  0  0  0  0
    5.7896   -0.9808    0.5966 C   0  0  0  0  0  0  0  0  0  0  0  0
    5.9833    0.1606   -0.2197 C   0  0  0  0  0  0  0  0  0  0  0  0
    4.8961    0.8397   -0.7723 C   0  0  0  0  0  0  0  0  0  0  0  0
    7.0238   -1.6816    1.1792 C   0  0  0  0  0  0  0  0  0  0  0  0
    7.8117   -2.1450    0.1645 F   0  0  0  0  0  0  0  0  0  0  0  0
    7.7571   -0.7904    1.9100 F   0  0  0  0  0  0  0  0  0  0  0  0
    6.7069   -2.7342    1.9908 F   0  0  0  0  0  0  0  0  0  0  0  0
    2.1399   -1.0067    0.3843 N   0  0  0  0  0  0  0  0  0  0  0  0
    1.5234   -2.0579    1.0882 C   0  0  0  0  0  0  0  0  0  0  0  0
    2.0084   -2.4458    2.3548 C   0  0  0  0  0  0  0  0  0  0  0  0
    1.3824   -3.4778    3.0539 C   0  0  0  0  0  0  0  0  0  0  0  0
    0.3015   -4.1402    2.5211 C   0  0  0  0  0  0  0  0  0  0  0  0
   -0.1316   -5.1096    3.3979 N   0  0  0  0  0  0  0  0  0  0  0  0
    0.6935   -4.9910    4.3981 C   0  0  0  0  0  0  0  0  0  0  0  0
    0.5146   -5.8279    5.4358 O   0  0  0  0  0  0  0  0  0  0  0  0
    1.6523   -4.0136    4.2762 O   0  0  0  0  0  0  0  0  0  0  0  0
   -0.1895   -3.8027    1.2647 C   0  0  0  0  0  0  0  0  0  0  0  0
    0.4257   -2.7641    0.5474 C   0  0  0  0  0  0  0  0  0  0  0  0
   -1.6501    0.9284    0.6737 H   0  0  0  0  0  0  0  0  0  0  0  0
   -0.0938    1.5662    1.2484 H   0  0  0  0  0  0  0  0  0  0  0  0
   -0.5215   -0.1359    1.5363 H   0  0  0  0  0  0  0  0  0  0  0  0
   -0.0698    1.1482   -1.2118 H   0  0  0  0  0  0  0  0  0  0  0  0
   -0.4650   -0.5405   -0.9528 H   0  0  0  0  0  0  0  0  0  0  0  0
    6.9921    0.5108   -0.4172 H   0  0  0  0  0  0  0  0  0  0  0  0
    5.0101    1.7180   -1.4015 H   0  0  0  0  0  0  0  0  0  0  0  0
    2.8603   -1.9502    2.8099 H   0  0  0  0  0  0  0  0  0  0  0  0
   -0.2387   -6.3669    5.1586 H   0  0  0  0  0  0  0  0  0  0  0  0
   -1.0301   -4.3546    0.8563 H   0  0  0  0  0  0  0  0  0  0  0  0
    0.0594   -2.5470   -0.4487 H   0  0  0  0  0  0  0  0  0  0  0  0
  1  2  1  0
  1 26  1  0
  1 27  1  0
  1 28  1  0
  2  3  1  0
  2 29  1  0
  2 30  1  0
  3  4  2  0
  3 15  1  0
  4  5  1  0
  5  6  2  0
  5 10  1  0
  6  7  1  0
  6 15  1  0
  7  8  2  0
  8  9  1  0
  8 11  1  0
  9 10  2  0
  9 31  1  0
 10 32  1  0
 11 12  1  0
 11 13  1  0
 11 14  1  0
 15 16  1  0
 16 17  2  0
 16 25  1  0
 17 18  1  0
 17 33  1  0
 18 19  2  0
 18 23  1  0
 19 20  1  0
 19 24  1  0
 20 21  2  0
 21 22  1  0
 21 23  1  0
 22 34  1  0
 24 25  2  0
 24 35  1  0
 25 36  1  0
M  END
>  <group_name>  (1) 
JNS

>  <molecule_index>  (1) 
01384

>  <conformer_index>  (1) 
09

>  <method>  (1) 
openff-1.3.0

>  <basis>  (1) 
smirnoff

>  <program>  (1) 
openmm

>  <initial_energy>  (1) 
83.51976341228722 kilocalorie / mole

>  <final_energy>  (1) 
70.48232214380145 kilocalorie / mole

$$$$
