JNS-02002-01
     RDKit          3D

 38 40  0  0  0  0  0  0  0  0999 V2000
   -0.0767   -0.3328    1.0353 C   0  0  0  0  0  0  0  0  0  0  0  0
    1.3396   -0.1235    0.5865 C   0  0  0  0  0  0  0  0  0  0  0  0
    2.0649   -1.1966    0.2405 N   0  0  0  0  0  0  0  0  0  0  0  0
    3.3444   -1.0134   -0.1743 C   0  0  0  0  0  0  0  0  0  0  0  0
    3.8943    0.2773   -0.2413 C   0  0  0  0  0  0  0  0  0  0  0  0
    3.1527    1.3957    0.1108 C   0  0  0  0  0  0  0  0  0  0  0  0
    1.8507    1.1706    0.5303 C   0  0  0  0  0  0  0  0  0  0  0  0
    3.6924    2.6878    0.0462 N   0  0  0  0  0  0  0  0  0  0  0  0
    2.9749    3.8847    0.4937 C   0  0  0  0  0  0  0  0  0  0  0  0
    4.0674    4.9459    0.4703 C   0  0  0  0  0  0  0  0  0  0  0  0
    5.0028    4.5044   -0.6631 C   0  0  2  0  0  0  0  0  0  0  0  0
    6.4120    5.1338   -0.6020 C   0  0  0  0  0  0  0  0  0  0  0  0
    6.5196    6.0028   -1.8449 C   0  0  0  0  0  0  0  0  0  0  0  0
    5.6641    5.2715   -2.7704 N   0  0  0  0  0  0  0  0  0  0  0  0
    4.4536    4.8899   -2.0477 C   0  0  0  0  0  0  0  0  0  0  0  0
    5.0241    2.9796   -0.5022 C   0  0  0  0  0  0  0  0  0  0  0  0
    4.2227   -2.2075   -0.5789 C   0  0  0  0  0  0  0  0  0  0  0  0
    4.6318   -2.0653   -1.8749 F   0  0  0  0  0  0  0  0  0  0  0  0
    3.5801   -3.4090   -0.4693 F   0  0  0  0  0  0  0  0  0  0  0  0
    5.3375   -2.2528    0.2104 F   0  0  0  0  0  0  0  0  0  0  0  0
   -0.7545    0.2767    0.4317 H   0  0  0  0  0  0  0  0  0  0  0  0
   -0.1780   -0.0518    2.0869 H   0  0  0  0  0  0  0  0  0  0  0  0
   -0.3606   -1.3837    0.9247 H   0  0  0  0  0  0  0  0  0  0  0  0
    4.9205    0.3761   -0.5725 H   0  0  0  0  0  0  0  0  0  0  0  0
    1.2046    1.9894    0.8176 H   0  0  0  0  0  0  0  0  0  0  0  0
    2.1734    4.1352   -0.2089 H   0  0  0  0  0  0  0  0  0  0  0  0
    2.5684    3.7717    1.5040 H   0  0  0  0  0  0  0  0  0  0  0  0
    3.6572    5.9494    0.3236 H   0  0  0  0  0  0  0  0  0  0  0  0
    4.6082    4.9234    1.4222 H   0  0  0  0  0  0  0  0  0  0  0  0
    6.5779    5.7237    0.3044 H   0  0  0  0  0  0  0  0  0  0  0  0
    7.1758    4.3507   -0.6496 H   0  0  0  0  0  0  0  0  0  0  0  0
    7.5508    6.0874   -2.2039 H   0  0  0  0  0  0  0  0  0  0  0  0
    6.1142    7.0015   -1.6488 H   0  0  0  0  0  0  0  0  0  0  0  0
    5.4696    5.7860   -3.6302 H   0  0  0  0  0  0  0  0  0  0  0  0
    3.9266    4.0645   -2.5394 H   0  0  0  0  0  0  0  0  0  0  0  0
    3.7731    5.7446   -1.9690 H   0  0  0  0  0  0  0  0  0  0  0  0
    5.1911    2.4878   -1.4665 H   0  0  0  0  0  0  0  0  0  0  0  0
    5.7998    2.6703    0.2059 H   0  0  0  0  0  0  0  0  0  0  0  0
  1  2  1  0
  1 21  1  0
  1 22  1  0
  1 23  1  0
  2  3  2  0
  2  7  1  0
  3  4  1  0
  4  5  2  0
  4 17  1  0
  5  6  1  0
  5 24  1  0
  6  7  2  0
  6  8  1  0
  7 25  1  0
  8  9  1  0
  8 16  1  0
  9 10  1  0
  9 26  1  0
  9 27  1  0
 11 10  1  1
 10 28  1  0
 10 29  1  0
 11 12  1  0
 11 15  1  0
 11 16  1  0
 12 13  1  0
 12 30  1  0
 12 31  1  0
 13 14  1  0
 13 32  1  0
 13 33  1  0
 14 15  1  0
 14 34  1  0
 15 35  1  0
 15 36  1  0
 16 37  1  0
 16 38  1  0
 17 18  1  0
 17 19  1  0
 17 20  1  0
M  END
>  <group_name>  (1) 
JNS

>  <molecule_index>  (1) 
02002

>  <conformer_index>  (1) 
01

>  <method>  (1) 
openff-1.3.0

>  <basis>  (1) 
smirnoff

>  <program>  (1) 
openmm

>  <initial_energy>  (1) 
37.797332314303794 kilocalorie / mole

>  <final_energy>  (1) 
30.932084267462283 kilocalorie / mole

$$$$
