JNS-01589-05
     RDKit          3D

 43 47  0  0  0  0  0  0  0  0999 V2000
   -2.6413    2.6563   -0.2895 C   0  0  0  0  0  0  0  0  0  0  0  0
   -1.9871    1.3098   -0.1073 C   0  0  0  0  0  0  0  0  0  0  0  0
   -2.7578    0.1526    0.0699 C   0  0  0  0  0  0  0  0  0  0  0  0
   -4.0645    0.0573    0.0908 N   0  0  0  0  0  0  0  0  0  0  0  0
   -4.3182   -1.2590    0.3062 N   0  0  0  0  0  0  0  0  0  0  0  0
   -3.1443   -1.9897    0.4181 C   0  0  0  0  0  0  0  0  0  0  0  0
   -2.1477   -1.0771    0.2627 C   0  0  0  0  0  0  0  0  0  0  0  0
   -0.7582   -1.1996    0.2799 C   0  0  0  0  0  0  0  0  0  0  0  0
    0.0428   -0.0594    0.0881 C   0  0  0  0  0  0  0  0  0  0  0  0
   -0.5865    1.1887   -0.0903 C   0  0  0  0  0  0  0  0  0  0  0  0
    1.5119   -0.1593    0.0895 C   0  0  0  0  0  0  0  0  0  0  0  0
    2.3986    0.7222    0.6472 C   0  0  0  0  0  0  0  0  0  0  0  0
    2.1731    1.8733    1.3099 N   0  0  0  0  0  0  0  0  0  0  0  0
    3.2571    2.5522    1.7797 C   0  0  0  0  0  0  0  0  0  0  0  0
    4.5684    2.0590    1.5760 C   0  0  0  0  0  0  0  0  0  0  0  0
    4.7848    0.8649    0.8899 C   0  0  0  0  0  0  0  0  0  0  0  0
    3.6630    0.2005    0.4249 C   0  0  0  0  0  0  0  0  0  0  0  0
    3.6344   -0.9255   -0.2351 N   0  0  0  0  0  0  0  0  0  0  0  0
    2.3125   -1.1586   -0.4707 N   0  0  0  0  0  0  0  0  0  0  0  0
    1.8236   -2.2195   -1.3711 C   0  0  0  0  0  0  0  0  0  0  0  0
    1.9239   -3.6483   -0.8395 C   0  0  0  0  0  0  0  0  0  0  0  0
    2.5788   -4.0806   -2.1469 C   0  0  0  0  0  0  0  0  0  0  0  0
    2.7160   -2.6168   -2.5515 C   0  0  0  0  0  0  0  0  0  0  0  0
    3.0821    3.8744    2.5343 C   0  0  0  0  0  0  0  0  0  0  0  0
    3.5471    3.7432    3.8121 F   0  0  0  0  0  0  0  0  0  0  0  0
    3.8080    4.8576    1.9228 F   0  0  0  0  0  0  0  0  0  0  0  0
    1.7815    4.2911    2.5937 F   0  0  0  0  0  0  0  0  0  0  0  0
   -1.8972    3.4581   -0.2776 H   0  0  0  0  0  0  0  0  0  0  0  0
   -3.1740    2.6845   -1.2444 H   0  0  0  0  0  0  0  0  0  0  0  0
   -3.3558    2.8370    0.5191 H   0  0  0  0  0  0  0  0  0  0  0  0
   -5.2564   -1.6475    0.3880 H   0  0  0  0  0  0  0  0  0  0  0  0
   -3.0380   -3.0549    0.5966 H   0  0  0  0  0  0  0  0  0  0  0  0
   -0.3106   -2.1702    0.4611 H   0  0  0  0  0  0  0  0  0  0  0  0
    0.0241    2.0773   -0.2198 H   0  0  0  0  0  0  0  0  0  0  0  0
    5.4153    2.6184    1.9602 H   0  0  0  0  0  0  0  0  0  0  0  0
    5.7818    0.4666    0.7231 H   0  0  0  0  0  0  0  0  0  0  0  0
    0.8152   -1.9888   -1.7282 H   0  0  0  0  0  0  0  0  0  0  0  0
    0.9608   -4.1244   -0.6308 H   0  0  0  0  0  0  0  0  0  0  0  0
    2.5895   -3.7495    0.0251 H   0  0  0  0  0  0  0  0  0  0  0  0
    1.9124   -4.6529   -2.8010 H   0  0  0  0  0  0  0  0  0  0  0  0
    3.5311   -4.6071   -2.0238 H   0  0  0  0  0  0  0  0  0  0  0  0
    3.7472   -2.2533   -2.4902 H   0  0  0  0  0  0  0  0  0  0  0  0
    2.2970   -2.3728   -3.5329 H   0  0  0  0  0  0  0  0  0  0  0  0
  1  2  1  0
  1 28  1  0
  1 29  1  0
  1 30  1  0
  2  3  1  0
  2 10  2  0
  3  4  2  0
  3  7  1  0
  4  5  1  0
  5  6  1  0
  5 31  1  0
  6  7  2  0
  6 32  1  0
  7  8  1  0
  8  9  2  0
  8 33  1  0
  9 10  1  0
  9 11  1  0
 10 34  1  0
 11 12  2  0
 11 19  1  0
 12 13  1  0
 12 17  1  0
 13 14  2  0
 14 15  1  0
 14 24  1  0
 15 16  2  0
 15 35  1  0
 16 17  1  0
 16 36  1  0
 17 18  2  0
 18 19  1  0
 19 20  1  0
 20 21  1  0
 20 23  1  0
 20 37  1  0
 21 22  1  0
 21 38  1  0
 21 39  1  0
 22 23  1  0
 22 40  1  0
 22 41  1  0
 23 42  1  0
 23 43  1  0
 24 25  1  0
 24 26  1  0
 24 27  1  0
M  END
>  <group_name>  (1) 
JNS

>  <molecule_index>  (1) 
01589

>  <conformer_index>  (1) 
05

>  <method>  (1) 
openff-1.3.0

>  <basis>  (1) 
smirnoff

>  <program>  (1) 
openmm

>  <initial_energy>  (1) 
179.23186979499977 kilocalorie / mole

>  <final_energy>  (1) 
161.66058082866536 kilocalorie / mole

$$$$
