JNS-02392-08
     RDKit          3D

 48 51  0  0  0  0  0  0  0  0999 V2000
   -1.8631    1.5830   -2.2519 C   0  0  0  0  0  0  0  0  0  0  0  0
   -1.5569    0.7083   -1.0739 C   0  0  0  0  0  0  0  0  0  0  0  0
   -2.5437    0.4042   -0.1652 C   0  0  0  0  0  0  0  0  0  0  0  0
   -2.2356   -0.4126    0.8980 C   0  0  0  0  0  0  0  0  0  0  0  0
   -3.2934   -0.7747    1.8965 C   0  0  0  0  0  0  0  0  0  0  0  0
   -1.0160   -0.9148    1.0348 N   0  0  0  0  0  0  0  0  0  0  0  0
   -0.1147   -0.5810    0.1114 C   0  0  0  0  0  0  0  0  0  0  0  0
   -0.3374    0.2080   -0.9381 N   0  0  0  0  0  0  0  0  0  0  0  0
    1.1651   -1.0843    0.2596 N   0  0  0  0  0  0  0  0  0  0  0  0
    1.4589   -2.3033    0.9880 C   0  0  0  0  0  0  0  0  0  0  0  0
    2.4560   -2.6304   -0.1543 C   0  0  2  0  0  0  0  0  0  0  0  0
    3.9376   -2.6445    0.2645 C   0  0  0  0  0  0  0  0  0  0  0  0
    4.8179   -2.2106   -0.9174 C   0  0  0  0  0  0  0  0  0  0  0  0
    4.3885   -0.9261   -1.4908 N   0  0  0  0  0  0  0  0  0  0  0  0
    3.1838   -0.2773   -0.9498 C   0  0  0  0  0  0  0  0  0  0  0  0
    2.0521   -1.3080   -0.8636 C   0  0  2  0  0  0  0  0  0  0  0  0
    5.0017   -0.4289   -2.6309 C   0  0  0  0  0  0  0  0  0  0  0  0
    4.6255    0.6232   -3.1320 O   0  0  0  0  0  0  0  0  0  0  0  0
    6.1488   -1.0983   -3.2274 C   0  0  0  0  0  0  0  0  0  0  0  0
    7.4112   -0.9052   -2.6614 C   0  0  0  0  0  0  0  0  0  0  0  0
    8.4966   -1.5431   -3.2427 C   0  0  0  0  0  0  0  0  0  0  0  0
    8.2990   -2.3484   -4.3612 C   0  0  0  0  0  0  0  0  0  0  0  0
    7.0902   -2.5421   -4.9143 N   0  0  0  0  0  0  0  0  0  0  0  0
    6.0026   -1.9183   -4.3761 C   0  0  0  0  0  0  0  0  0  0  0  0
    4.6166   -2.1538   -5.0145 C   0  0  0  0  0  0  0  0  0  0  0  0
    4.6540   -3.1086   -5.9921 F   0  0  0  0  0  0  0  0  0  0  0  0
    3.7169   -2.5942   -4.0846 F   0  0  0  0  0  0  0  0  0  0  0  0
    4.1433   -1.0102   -5.5866 F   0  0  0  0  0  0  0  0  0  0  0  0
   -2.8059    1.2779   -2.7136 H   0  0  0  0  0  0  0  0  0  0  0  0
   -1.0675    1.5050   -2.9990 H   0  0  0  0  0  0  0  0  0  0  0  0
   -1.9399    2.6243   -1.9284 H   0  0  0  0  0  0  0  0  0  0  0  0
   -3.5430    0.8044   -0.2827 H   0  0  0  0  0  0  0  0  0  0  0  0
   -2.9695   -1.6278    2.4997 H   0  0  0  0  0  0  0  0  0  0  0  0
   -3.4805    0.0741    2.5594 H   0  0  0  0  0  0  0  0  0  0  0  0
   -4.2208   -1.0424    1.3831 H   0  0  0  0  0  0  0  0  0  0  0  0
    0.6231   -3.0080    1.0644 H   0  0  0  0  0  0  0  0  0  0  0  0
    1.9129   -2.1380    1.9705 H   0  0  0  0  0  0  0  0  0  0  0  0
    2.1720   -3.5125   -0.7360 H   0  0  0  0  0  0  0  0  0  0  0  0
    4.2242   -3.6458    0.6000 H   0  0  0  0  0  0  0  0  0  0  0  0
    4.0998   -1.9562    1.1009 H   0  0  0  0  0  0  0  0  0  0  0  0
    5.8538   -2.1336   -0.5721 H   0  0  0  0  0  0  0  0  0  0  0  0
    4.7733   -2.9879   -1.6872 H   0  0  0  0  0  0  0  0  0  0  0  0
    3.4038    0.1197    0.0459 H   0  0  0  0  0  0  0  0  0  0  0  0
    2.8415    0.5655   -1.5591 H   0  0  0  0  0  0  0  0  0  0  0  0
    1.5571   -1.4747   -1.8275 H   0  0  0  0  0  0  0  0  0  0  0  0
    7.5397   -0.2615   -1.7929 H   0  0  0  0  0  0  0  0  0  0  0  0
    9.4972   -1.4190   -2.8418 H   0  0  0  0  0  0  0  0  0  0  0  0
    9.1573   -2.8431   -4.8066 H   0  0  0  0  0  0  0  0  0  0  0  0
  1  2  1  0
  1 29  1  0
  1 30  1  0
  1 31  1  0
  2  3  2  0
  2  8  1  0
  3  4  1  0
  3 32  1  0
  4  5  1  0
  4  6  2  0
  5 33  1  0
  5 34  1  0
  5 35  1  0
  6  7  1  0
  7  8  2  0
  7  9  1  0
  9 10  1  0
  9 16  1  0
 10 11  1  0
 10 36  1  0
 10 37  1  0
 11 12  1  0
 11 16  1  0
 11 38  1  6
 12 13  1  0
 12 39  1  0
 12 40  1  0
 13 14  1  0
 13 41  1  0
 13 42  1  0
 14 15  1  0
 14 17  1  0
 15 16  1  0
 15 43  1  0
 15 44  1  0
 16 45  1  6
 17 18  2  0
 17 19  1  0
 19 20  2  0
 19 24  1  0
 20 21  1  0
 20 46  1  0
 21 22  2  0
 21 47  1  0
 22 23  1  0
 22 48  1  0
 23 24  2  0
 24 25  1  0
 25 26  1  0
 25 27  1  0
 25 28  1  0
M  END
>  <group_name>  (1) 
JNS

>  <molecule_index>  (1) 
02392

>  <conformer_index>  (1) 
08

>  <method>  (1) 
openff-1.3.0

>  <basis>  (1) 
smirnoff

>  <program>  (1) 
openmm

>  <initial_energy>  (1) 
-59.980962107041336 kilocalorie / mole

>  <final_energy>  (1) 
-72.64532209487393 kilocalorie / mole

$$$$
