JNS-00690-00
     RDKit          3D

 38 42  0  0  0  0  0  0  0  0999 V2000
   -0.3864   -2.6028   -0.1298 O   0  0  0  0  0  0  0  0  0  0  0  0
   -0.0284   -1.2155   -0.1918 C   0  0  0  0  0  0  0  0  0  0  0  0
   -1.1245   -0.2272    0.1862 C   0  0  0  0  0  0  0  0  0  0  0  0
   -0.7506   -0.4301   -1.2782 C   0  0  0  0  0  0  0  0  0  0  0  0
    1.4253   -0.8585    0.0873 C   0  0  0  0  0  0  0  0  0  0  0  0
    2.3158   -0.9523   -0.8751 N   0  0  0  0  0  0  0  0  0  0  0  0
    3.4902   -0.4824   -0.3131 C   0  0  0  0  0  0  0  0  0  0  0  0
    3.3115   -0.1011    1.0038 C   0  0  0  0  0  0  0  0  0  0  0  0
    4.3006    0.3908    1.7777 N   0  0  0  0  0  0  0  0  0  0  0  0
    5.5372    0.5176    1.2182 C   0  0  0  0  0  0  0  0  0  0  0  0
    5.7645    0.1424   -0.1281 C   0  0  0  0  0  0  0  0  0  0  0  0
    4.7302   -0.3670   -0.9136 C   0  0  0  0  0  0  0  0  0  0  0  0
    6.7107    1.0798    2.0309 C   0  0  0  0  0  0  0  0  0  0  0  0
    7.6800    0.1266    2.1600 F   0  0  0  0  0  0  0  0  0  0  0  0
    6.3436    1.4926    3.2810 F   0  0  0  0  0  0  0  0  0  0  0  0
    7.2541    2.1496    1.3779 F   0  0  0  0  0  0  0  0  0  0  0  0
    1.9821   -0.3683    1.2819 N   0  0  0  0  0  0  0  0  0  0  0  0
    1.3464   -0.2197    2.5342 C   0  0  0  0  0  0  0  0  0  0  0  0
    1.7205    0.8194    3.4126 C   0  0  0  0  0  0  0  0  0  0  0  0
    1.0764    0.9568    4.6459 C   0  0  0  0  0  0  0  0  0  0  0  0
    0.0856    0.0944    5.0287 C   0  0  0  0  0  0  0  0  0  0  0  0
   -0.3195    0.5197    6.2830 N   0  0  0  0  0  0  0  0  0  0  0  0
    0.3804    1.6158    6.6967 N   0  0  0  0  0  0  0  0  0  0  0  0
    1.2280    1.8972    5.7337 C   0  0  0  0  0  0  0  0  0  0  0  0
   -0.3028   -0.9538    4.1966 C   0  0  0  0  0  0  0  0  0  0  0  0
    0.3318   -1.1101    2.9553 C   0  0  0  0  0  0  0  0  0  0  0  0
    0.2399   -3.1268   -0.6624 H   0  0  0  0  0  0  0  0  0  0  0  0
   -0.8241    0.7114    0.6627 H   0  0  0  0  0  0  0  0  0  0  0  0
   -2.0790   -0.6409    0.5254 H   0  0  0  0  0  0  0  0  0  0  0  0
   -1.4586   -0.9751   -1.9099 H   0  0  0  0  0  0  0  0  0  0  0  0
   -0.1944    0.3682   -1.7800 H   0  0  0  0  0  0  0  0  0  0  0  0
    6.7578    0.2529   -0.5532 H   0  0  0  0  0  0  0  0  0  0  0  0
    4.8714   -0.6645   -1.9488 H   0  0  0  0  0  0  0  0  0  0  0  0
    2.4969    1.5297    3.1443 H   0  0  0  0  0  0  0  0  0  0  0  0
   -1.0468    0.0610    6.8323 H   0  0  0  0  0  0  0  0  0  0  0  0
    1.9388    2.7181    5.7516 H   0  0  0  0  0  0  0  0  0  0  0  0
   -1.0791   -1.6469    4.5057 H   0  0  0  0  0  0  0  0  0  0  0  0
    0.0360   -1.9517    2.3382 H   0  0  0  0  0  0  0  0  0  0  0  0
  1  2  1  0
  1 27  1  0
  2  3  1  0
  2  4  1  0
  2  5  1  0
  3  4  1  0
  3 28  1  0
  3 29  1  0
  4 30  1  0
  4 31  1  0
  5  6  2  0
  5 17  1  0
  6  7  1  0
  7  8  2  0
  7 12  1  0
  8  9  1  0
  8 17  1  0
  9 10  2  0
 10 11  1  0
 10 13  1  0
 11 12  2  0
 11 32  1  0
 12 33  1  0
 13 14  1  0
 13 15  1  0
 13 16  1  0
 17 18  1  0
 18 19  2  0
 18 26  1  0
 19 20  1  0
 19 34  1  0
 20 21  2  0
 20 24  1  0
 21 22  1  0
 21 25  1  0
 22 23  1  0
 22 35  1  0
 23 24  2  0
 24 36  1  0
 25 26  2  0
 25 37  1  0
 26 38  1  0
M  END
>  <group_name>  (1) 
JNS

>  <molecule_index>  (1) 
00690

>  <conformer_index>  (1) 
00

>  <method>  (1) 
openff-1.3.0

>  <basis>  (1) 
smirnoff

>  <program>  (1) 
openmm

>  <initial_energy>  (1) 
193.06855250281325 kilocalorie / mole

>  <final_energy>  (1) 
180.6812467110476 kilocalorie / mole

$$$$
