JNS-01358-04
     RDKit          3D

 41 45  0  0  0  0  0  0  0  0999 V2000
   -1.8324   -3.9400    0.3818 F   0  0  0  0  0  0  0  0  0  0  0  0
   -1.6169   -2.6042    0.3285 C   0  0  0  0  0  0  0  0  0  0  0  0
   -2.6775   -1.7782    0.2993 N   0  0  0  0  0  0  0  0  0  0  0  0
   -2.4318   -0.4601    0.2347 C   0  0  0  0  0  0  0  0  0  0  0  0
   -1.1430    0.0777    0.2146 C   0  0  0  0  0  0  0  0  0  0  0  0
   -0.0270   -0.7631    0.2693 C   0  0  0  0  0  0  0  0  0  0  0  0
   -0.3025   -2.1333    0.3118 C   0  0  0  0  0  0  0  0  0  0  0  0
    1.3627   -0.2550    0.2366 C   0  0  0  0  0  0  0  0  0  0  0  0
    2.3237   -0.9722   -0.3034 N   0  0  0  0  0  0  0  0  0  0  0  0
    3.4392   -0.1527   -0.2799 C   0  0  0  0  0  0  0  0  0  0  0  0
    3.1560    1.0721    0.2914 C   0  0  0  0  0  0  0  0  0  0  0  0
    4.0632    2.0582    0.4392 N   0  0  0  0  0  0  0  0  0  0  0  0
    5.3280    1.8224   -0.0118 C   0  0  0  0  0  0  0  0  0  0  0  0
    5.6643    0.5828   -0.6085 C   0  0  0  0  0  0  0  0  0  0  0  0
    4.7109   -0.4268   -0.7485 C   0  0  0  0  0  0  0  0  0  0  0  0
    6.4156    2.8972    0.1109 C   0  0  0  0  0  0  0  0  0  0  0  0
    6.9339    3.1715   -1.1226 F   0  0  0  0  0  0  0  0  0  0  0  0
    5.9491    4.0668    0.6426 F   0  0  0  0  0  0  0  0  0  0  0  0
    7.4282    2.4390    0.9042 F   0  0  0  0  0  0  0  0  0  0  0  0
    1.8292    0.9986    0.6725 N   0  0  0  0  0  0  0  0  0  0  0  0
    1.1897    1.8982    1.5498 C   0  0  0  0  0  0  0  0  0  0  0  0
    1.4146    3.2858    1.4409 C   0  0  0  0  0  0  0  0  0  0  0  0
    0.7779    4.1661    2.3196 C   0  0  0  0  0  0  0  0  0  0  0  0
   -0.0667    3.6920    3.3071 C   0  0  0  0  0  0  0  0  0  0  0  0
   -0.5616    4.7481    4.0440 N   0  0  0  0  0  0  0  0  0  0  0  0
    0.0396    5.8962    3.6145 C   0  0  0  0  0  0  0  0  0  0  0  0
   -0.0206    6.9301    4.2650 O   0  0  0  0  0  0  0  0  0  0  0  0
    0.9141    5.6652    2.3881 C   0  0  0  0  0  0  0  0  0  0  0  0
   -0.2915    2.3278    3.4561 C   0  0  0  0  0  0  0  0  0  0  0  0
    0.3400    1.4331    2.5795 C   0  0  0  0  0  0  0  0  0  0  0  0
   -3.2780    0.2198    0.1941 H   0  0  0  0  0  0  0  0  0  0  0  0
   -1.0342    1.1553    0.1438 H   0  0  0  0  0  0  0  0  0  0  0  0
    0.5033   -2.8600    0.3317 H   0  0  0  0  0  0  0  0  0  0  0  0
    6.6782    0.4172   -0.9610 H   0  0  0  0  0  0  0  0  0  0  0  0
    4.9364   -1.3883   -1.2016 H   0  0  0  0  0  0  0  0  0  0  0  0
    2.0774    3.6839    0.6774 H   0  0  0  0  0  0  0  0  0  0  0  0
   -0.8007    4.6724    5.0265 H   0  0  0  0  0  0  0  0  0  0  0  0
    1.9439    5.9800    2.5739 H   0  0  0  0  0  0  0  0  0  0  0  0
    0.4934    6.1574    1.5086 H   0  0  0  0  0  0  0  0  0  0  0  0
   -0.9425    1.9620    4.2443 H   0  0  0  0  0  0  0  0  0  0  0  0
    0.1772    0.3689    2.7237 H   0  0  0  0  0  0  0  0  0  0  0  0
  1  2  1  0
  2  3  2  0
  2  7  1  0
  3  4  1  0
  4  5  2  0
  4 31  1  0
  5  6  1  0
  5 32  1  0
  6  7  2  0
  6  8  1  0
  7 33  1  0
  8  9  2  0
  8 20  1  0
  9 10  1  0
 10 11  2  0
 10 15  1  0
 11 12  1  0
 11 20  1  0
 12 13  2  0
 13 14  1  0
 13 16  1  0
 14 15  2  0
 14 34  1  0
 15 35  1  0
 16 17  1  0
 16 18  1  0
 16 19  1  0
 20 21  1  0
 21 22  2  0
 21 30  1  0
 22 23  1  0
 22 36  1  0
 23 24  2  0
 23 28  1  0
 24 25  1  0
 24 29  1  0
 25 26  1  0
 25 37  1  0
 26 27  2  0
 26 28  1  0
 28 38  1  0
 28 39  1  0
 29 30  2  0
 29 40  1  0
 30 41  1  0
M  END
>  <group_name>  (1) 
JNS

>  <molecule_index>  (1) 
01358

>  <conformer_index>  (1) 
04

>  <method>  (1) 
openff-1.3.0

>  <basis>  (1) 
smirnoff

>  <program>  (1) 
openmm

>  <initial_energy>  (1) 
98.09177461851323 kilocalorie / mole

>  <final_energy>  (1) 
85.28601755541493 kilocalorie / mole

$$$$
