JNS-01845-05
     RDKit          3D

 36 39  0  0  0  0  0  0  0  0999 V2000
    0.0892   -0.4104   -0.9991 C   0  0  0  0  0  0  0  0  0  0  0  0
    1.5770   -0.4632   -0.7605 C   0  0  0  0  0  0  0  0  0  0  0  0
    2.4191    0.5790   -1.0842 C   0  0  0  0  0  0  0  0  0  0  0  0
    3.7305    0.2356   -0.5894 C   0  0  0  0  0  0  0  0  0  0  0  0
    3.6467   -1.0005    0.0357 C   0  0  0  0  0  0  0  0  0  0  0  0
    4.7061   -1.6129    0.6001 N   0  0  0  0  0  0  0  0  0  0  0  0
    5.9081   -0.9728    0.5566 C   0  0  0  0  0  0  0  0  0  0  0  0
    6.0334    0.2926   -0.0645 C   0  0  0  0  0  0  0  0  0  0  0  0
    4.9343    0.9164   -0.6507 C   0  0  0  0  0  0  0  0  0  0  0  0
    7.1567   -1.6053    1.1856 C   0  0  0  0  0  0  0  0  0  0  0  0
    8.1011   -1.8182    0.2220 F   0  0  0  0  0  0  0  0  0  0  0  0
    7.6865   -0.7555    2.1150 F   0  0  0  0  0  0  0  0  0  0  0  0
    6.8987   -2.7971    1.8025 F   0  0  0  0  0  0  0  0  0  0  0  0
    2.3213   -1.4461   -0.0767 N   0  0  0  0  0  0  0  0  0  0  0  0
    1.8372   -2.6891    0.3810 C   0  0  0  0  0  0  0  0  0  0  0  0
    0.8850   -3.4141   -0.3642 C   0  0  0  0  0  0  0  0  0  0  0  0
    0.4137   -4.6415    0.1083 C   0  0  0  0  0  0  0  0  0  0  0  0
    0.8777   -5.1643    1.3039 C   0  0  0  0  0  0  0  0  0  0  0  0
    0.2642   -6.3826    1.5389 N   0  0  0  0  0  0  0  0  0  0  0  0
   -0.5028   -6.7081    0.4587 C   0  0  0  0  0  0  0  0  0  0  0  0
   -0.9510   -7.8346    0.2963 O   0  0  0  0  0  0  0  0  0  0  0  0
   -0.5627   -5.5759   -0.5594 C   0  0  0  0  0  0  0  0  0  0  0  0
    1.8376   -4.4845    2.0577 C   0  0  0  0  0  0  0  0  0  0  0  0
    2.3021   -5.0042    3.2227 F   0  0  0  0  0  0  0  0  0  0  0  0
    2.3092   -3.2515    1.5885 C   0  0  0  0  0  0  0  0  0  0  0  0
   -0.1519   -0.8453   -1.9732 H   0  0  0  0  0  0  0  0  0  0  0  0
   -0.2582    0.6269   -0.9856 H   0  0  0  0  0  0  0  0  0  0  0  0
   -0.4456   -0.9552   -0.2155 H   0  0  0  0  0  0  0  0  0  0  0  0
    2.1422    1.5015   -1.5871 H   0  0  0  0  0  0  0  0  0  0  0  0
    7.0028    0.7817   -0.0845 H   0  0  0  0  0  0  0  0  0  0  0  0
    5.0135    1.8867   -1.1339 H   0  0  0  0  0  0  0  0  0  0  0  0
    0.5327   -3.0471   -1.3220 H   0  0  0  0  0  0  0  0  0  0  0  0
    0.6927   -7.1222    2.0860 H   0  0  0  0  0  0  0  0  0  0  0  0
   -0.2131   -5.9109   -1.5386 H   0  0  0  0  0  0  0  0  0  0  0  0
   -1.5675   -5.1512   -0.6112 H   0  0  0  0  0  0  0  0  0  0  0  0
    3.0480   -2.7317    2.1901 H   0  0  0  0  0  0  0  0  0  0  0  0
  1  2  1  0
  1 26  1  0
  1 27  1  0
  1 28  1  0
  2  3  2  0
  2 14  1  0
  3  4  1  0
  3 29  1  0
  4  5  2  0
  4  9  1  0
  5  6  1  0
  5 14  1  0
  6  7  2  0
  7  8  1  0
  7 10  1  0
  8  9  2  0
  8 30  1  0
  9 31  1  0
 10 11  1  0
 10 12  1  0
 10 13  1  0
 14 15  1  0
 15 16  2  0
 15 25  1  0
 16 17  1  0
 16 32  1  0
 17 18  2  0
 17 22  1  0
 18 19  1  0
 18 23  1  0
 19 20  1  0
 19 33  1  0
 20 21  2  0
 20 22  1  0
 22 34  1  0
 22 35  1  0
 23 24  1  0
 23 25  2  0
 25 36  1  0
M  END
>  <group_name>  (1) 
JNS

>  <molecule_index>  (1) 
01845

>  <conformer_index>  (1) 
05

>  <method>  (1) 
openff-1.3.0

>  <basis>  (1) 
smirnoff

>  <program>  (1) 
openmm

>  <initial_energy>  (1) 
112.50491062483339 kilocalorie / mole

>  <final_energy>  (1) 
100.91847302699772 kilocalorie / mole

$$$$
