JNS-01845-06
     RDKit          3D

 36 39  0  0  0  0  0  0  0  0999 V2000
    0.1180   -0.1510    0.8798 C   0  0  0  0  0  0  0  0  0  0  0  0
    1.5970   -0.2718    0.6126 C   0  0  0  0  0  0  0  0  0  0  0  0
    2.4424    0.8171    0.6059 C   0  0  0  0  0  0  0  0  0  0  0  0
    3.7382    0.3466    0.1793 C   0  0  0  0  0  0  0  0  0  0  0  0
    3.6416   -1.0138   -0.0767 C   0  0  0  0  0  0  0  0  0  0  0  0
    4.6851   -1.7612   -0.4870 N   0  0  0  0  0  0  0  0  0  0  0  0
    5.8834   -1.1373   -0.6644 C   0  0  0  0  0  0  0  0  0  0  0  0
    6.0210    0.2500   -0.4218 C   0  0  0  0  0  0  0  0  0  0  0  0
    4.9386    1.0146    0.0076 C   0  0  0  0  0  0  0  0  0  0  0  0
    7.1138   -1.9224   -1.1380 C   0  0  0  0  0  0  0  0  0  0  0  0
    8.0926   -1.8634   -0.1870 F   0  0  0  0  0  0  0  0  0  0  0  0
    7.6049   -1.3640   -2.2840 F   0  0  0  0  0  0  0  0  0  0  0  0
    6.8430   -3.2376   -1.3920 F   0  0  0  0  0  0  0  0  0  0  0  0
    2.3241   -1.4073    0.2011 N   0  0  0  0  0  0  0  0  0  0  0  0
    1.8332   -2.7270    0.1219 C   0  0  0  0  0  0  0  0  0  0  0  0
    0.9126   -3.2154    1.0715 C   0  0  0  0  0  0  0  0  0  0  0  0
    0.4339   -4.5241    0.9733 C   0  0  0  0  0  0  0  0  0  0  0  0
    0.8599   -5.3582   -0.0470 C   0  0  0  0  0  0  0  0  0  0  0  0
    0.2473   -6.5924    0.0855 N   0  0  0  0  0  0  0  0  0  0  0  0
   -0.4795   -6.6046    1.2400 C   0  0  0  0  0  0  0  0  0  0  0  0
   -0.9138   -7.6412    1.7229 O   0  0  0  0  0  0  0  0  0  0  0  0
   -0.5121   -5.2351    1.9071 C   0  0  0  0  0  0  0  0  0  0  0  0
    1.7883   -4.9158   -0.9926 C   0  0  0  0  0  0  0  0  0  0  0  0
    2.2157   -5.7384   -1.9844 F   0  0  0  0  0  0  0  0  0  0  0  0
    2.2671   -3.6024   -0.8991 C   0  0  0  0  0  0  0  0  0  0  0  0
   -0.0860   -0.2991    1.9440 H   0  0  0  0  0  0  0  0  0  0  0  0
   -0.4397   -0.8896    0.2966 H   0  0  0  0  0  0  0  0  0  0  0  0
   -0.2370    0.8432    0.5925 H   0  0  0  0  0  0  0  0  0  0  0  0
    2.1766    1.8434    0.8439 H   0  0  0  0  0  0  0  0  0  0  0  0
    6.9870    0.7230   -0.5720 H   0  0  0  0  0  0  0  0  0  0  0  0
    5.0276    2.0804    0.2009 H   0  0  0  0  0  0  0  0  0  0  0  0
    0.5912   -2.5970    1.9025 H   0  0  0  0  0  0  0  0  0  0  0  0
    0.6618   -7.4555   -0.2508 H   0  0  0  0  0  0  0  0  0  0  0  0
   -0.1264   -5.2874    2.9278 H   0  0  0  0  0  0  0  0  0  0  0  0
   -1.5175   -4.8098    1.8750 H   0  0  0  0  0  0  0  0  0  0  0  0
    2.9809   -3.2712   -1.6466 H   0  0  0  0  0  0  0  0  0  0  0  0
  1  2  1  0
  1 26  1  0
  1 27  1  0
  1 28  1  0
  2  3  2  0
  2 14  1  0
  3  4  1  0
  3 29  1  0
  4  5  2  0
  4  9  1  0
  5  6  1  0
  5 14  1  0
  6  7  2  0
  7  8  1  0
  7 10  1  0
  8  9  2  0
  8 30  1  0
  9 31  1  0
 10 11  1  0
 10 12  1  0
 10 13  1  0
 14 15  1  0
 15 16  2  0
 15 25  1  0
 16 17  1  0
 16 32  1  0
 17 18  2  0
 17 22  1  0
 18 19  1  0
 18 23  1  0
 19 20  1  0
 19 33  1  0
 20 21  2  0
 20 22  1  0
 22 34  1  0
 22 35  1  0
 23 24  1  0
 23 25  2  0
 25 36  1  0
M  END
>  <group_name>  (1) 
JNS

>  <molecule_index>  (1) 
01845

>  <conformer_index>  (1) 
06

>  <method>  (1) 
openff-1.3.0

>  <basis>  (1) 
smirnoff

>  <program>  (1) 
openmm

>  <initial_energy>  (1) 
112.50361731415914 kilocalorie / mole

>  <final_energy>  (1) 
100.9184738796964 kilocalorie / mole

$$$$
