JNS-01586-07
     RDKit          3D

 40 44  0  0  0  0  0  0  0  0999 V2000
   -0.3273    1.3177    0.1104 F   0  0  0  0  0  0  0  0  0  0  0  0
    0.0552    0.0166    0.2777 C   0  0  0  0  0  0  0  0  0  0  0  0
   -0.4766   -0.4272    1.4564 F   0  0  0  0  0  0  0  0  0  0  0  0
   -0.4887   -0.7157   -0.7389 F   0  0  0  0  0  0  0  0  0  0  0  0
    1.5835   -0.0865    0.2326 C   0  0  0  0  0  0  0  0  0  0  0  0
    2.2713   -0.6468    1.2673 N   0  0  0  0  0  0  0  0  0  0  0  0
    3.6147   -0.6941    1.1707 C   0  0  0  0  0  0  0  0  0  0  0  0
    4.5390   -1.2209    2.0339 C   0  0  0  0  0  0  0  0  0  0  0  0
    5.7778   -0.9769    1.4197 N   0  0  0  0  0  0  0  0  0  0  0  0
    5.6067   -0.3977    0.1960 N   0  0  0  0  0  0  0  0  0  0  0  0
    4.3196   -0.2193    0.0781 C   0  0  0  0  0  0  0  0  0  0  0  0
    3.6520    0.3535   -0.9910 C   0  0  0  0  0  0  0  0  0  0  0  0
    2.2624    0.4190   -0.9018 C   0  0  0  0  0  0  0  0  0  0  0  0
    7.0573   -1.1220    1.9962 C   0  0  0  0  0  0  0  0  0  0  0  0
    8.1803   -1.3194    1.1685 C   0  0  0  0  0  0  0  0  0  0  0  0
    9.4624   -1.4615    1.7122 C   0  0  0  0  0  0  0  0  0  0  0  0
    9.6476   -1.3966    3.0952 C   0  0  0  0  0  0  0  0  0  0  0  0
    8.5506   -1.1787    3.9319 C   0  0  0  0  0  0  0  0  0  0  0  0
    7.2690   -1.0347    3.3879 C   0  0  0  0  0  0  0  0  0  0  0  0
    4.2375   -1.9566    3.2762 C   0  0  0  0  0  0  0  0  0  0  0  0
    3.1926   -1.5383    4.1258 C   0  0  0  0  0  0  0  0  0  0  0  0
    2.9064   -2.2355    5.3089 C   0  0  0  0  0  0  0  0  0  0  0  0
    3.6691   -3.3573    5.6347 C   0  0  0  0  0  0  0  0  0  0  0  0
    3.6490   -4.2475    6.6951 N   0  0  0  0  0  0  0  0  0  0  0  0
    4.6080   -5.2104    6.5664 N   0  0  0  0  0  0  0  0  0  0  0  0
    5.2360   -4.9574    5.4415 C   0  0  0  0  0  0  0  0  0  0  0  0
    4.6773   -3.7825    4.8107 C   0  0  0  0  0  0  0  0  0  0  0  0
    4.9738   -3.1062    3.6242 C   0  0  0  0  0  0  0  0  0  0  0  0
    4.1940    0.7289   -1.8548 H   0  0  0  0  0  0  0  0  0  0  0  0
    1.6923    0.8602   -1.7133 H   0  0  0  0  0  0  0  0  0  0  0  0
    8.0582   -1.3723    0.0895 H   0  0  0  0  0  0  0  0  0  0  0  0
   10.3147   -1.6206    1.0570 H   0  0  0  0  0  0  0  0  0  0  0  0
   10.6428   -1.5061    3.5179 H   0  0  0  0  0  0  0  0  0  0  0  0
    8.6930   -1.1120    5.0074 H   0  0  0  0  0  0  0  0  0  0  0  0
    6.4455   -0.8324    4.0666 H   0  0  0  0  0  0  0  0  0  0  0  0
    2.5984   -0.6658    3.8672 H   0  0  0  0  0  0  0  0  0  0  0  0
    2.0988   -1.9055    5.9550 H   0  0  0  0  0  0  0  0  0  0  0  0
    2.9852   -4.1947    7.4683 H   0  0  0  0  0  0  0  0  0  0  0  0
    6.0583   -5.5448    5.0440 H   0  0  0  0  0  0  0  0  0  0  0  0
    5.7657   -3.4739    2.9778 H   0  0  0  0  0  0  0  0  0  0  0  0
  1  2  1  0
  2  3  1  0
  2  4  1  0
  2  5  1  0
  5  6  2  0
  5 13  1  0
  6  7  1  0
  7  8  2  0
  7 11  1  0
  8  9  1  0
  8 20  1  0
  9 10  1  0
  9 14  1  0
 10 11  2  0
 11 12  1  0
 12 13  2  0
 12 29  1  0
 13 30  1  0
 14 15  2  0
 14 19  1  0
 15 16  1  0
 15 31  1  0
 16 17  2  0
 16 32  1  0
 17 18  1  0
 17 33  1  0
 18 19  2  0
 18 34  1  0
 19 35  1  0
 20 21  2  0
 20 28  1  0
 21 22  1  0
 21 36  1  0
 22 23  2  0
 22 37  1  0
 23 24  1  0
 23 27  1  0
 24 25  1  0
 24 38  1  0
 25 26  2  0
 26 27  1  0
 26 39  1  0
 27 28  2  0
 28 40  1  0
M  END
>  <group_name>  (1) 
JNS

>  <molecule_index>  (1) 
01586

>  <conformer_index>  (1) 
07

>  <method>  (1) 
openff-1.3.0

>  <basis>  (1) 
smirnoff

>  <program>  (1) 
openmm

>  <initial_energy>  (1) 
186.78112274632164 kilocalorie / mole

>  <final_energy>  (1) 
173.39074354557346 kilocalorie / mole

$$$$
