JNS-01681-03
     RDKit          3D

 30 33  0  0  0  0  0  0  0  0999 V2000
    0.8107   -1.5490   -2.5144 F   0  0  0  0  0  0  0  0  0  0  0  0
    0.4682   -1.0911   -1.2740 C   0  0  0  0  0  0  0  0  0  0  0  0
   -0.0569   -2.1369   -0.5675 F   0  0  0  0  0  0  0  0  0  0  0  0
   -0.5059   -0.1461   -1.4259 F   0  0  0  0  0  0  0  0  0  0  0  0
    1.6941   -0.4670   -0.5945 C   0  0  0  0  0  0  0  0  0  0  0  0
    2.1323   -0.9295    0.6108 N   0  0  0  0  0  0  0  0  0  0  0  0
    3.2198   -0.3455    1.1544 C   0  0  0  0  0  0  0  0  0  0  0  0
    3.8963    0.7006    0.5480 C   0  0  0  0  0  0  0  0  0  0  0  0
    3.4815    1.1959   -0.6743 C   0  0  0  0  0  0  0  0  0  0  0  0
    2.3618    0.5954   -1.2485 C   0  0  0  0  0  0  0  0  0  0  0  0
    4.9660    1.1385    1.3093 N   0  0  0  0  0  0  0  0  0  0  0  0
    4.9408    0.3697    2.3711 C   0  0  0  0  0  0  0  0  0  0  0  0
    3.8984   -0.5633    2.3457 N   0  0  0  0  0  0  0  0  0  0  0  0
    3.6262   -1.5130    3.3588 C   0  0  0  0  0  0  0  0  0  0  0  0
    4.2404   -1.4016    4.6284 C   0  0  0  0  0  0  0  0  0  0  0  0
    3.9710   -2.3451    5.6247 C   0  0  0  0  0  0  0  0  0  0  0  0
    3.1154   -3.3882    5.3993 C   0  0  0  0  0  0  0  0  0  0  0  0
    3.0799   -4.1117    6.5797 N   0  0  0  0  0  0  0  0  0  0  0  0
    3.8816   -3.5590    7.5358 N   0  0  0  0  0  0  0  0  0  0  0  0
    4.4272   -2.4972    6.9897 C   0  0  0  0  0  0  0  0  0  0  0  0
    2.4894   -3.5373    4.1645 C   0  0  0  0  0  0  0  0  0  0  0  0
    2.7466   -2.6031    3.1503 C   0  0  0  0  0  0  0  0  0  0  0  0
    4.0153    2.0158   -1.1467 H   0  0  0  0  0  0  0  0  0  0  0  0
    1.9954    0.9476   -2.2082 H   0  0  0  0  0  0  0  0  0  0  0  0
    5.6689    0.4562    3.1710 H   0  0  0  0  0  0  0  0  0  0  0  0
    4.9158   -0.5895    4.8729 H   0  0  0  0  0  0  0  0  0  0  0  0
    2.5182   -4.9529    6.7151 H   0  0  0  0  0  0  0  0  0  0  0  0
    5.1216   -1.8298    7.4911 H   0  0  0  0  0  0  0  0  0  0  0  0
    1.8111   -4.3655    3.9832 H   0  0  0  0  0  0  0  0  0  0  0  0
    2.2518   -2.7615    2.1992 H   0  0  0  0  0  0  0  0  0  0  0  0
  1  2  1  0
  2  3  1  0
  2  4  1  0
  2  5  1  0
  5  6  2  0
  5 10  1  0
  6  7  1  0
  7  8  2  0
  7 13  1  0
  8  9  1  0
  8 11  1  0
  9 10  2  0
  9 23  1  0
 10 24  1  0
 11 12  2  0
 12 13  1  0
 12 25  1  0
 13 14  1  0
 14 15  2  0
 14 22  1  0
 15 16  1  0
 15 26  1  0
 16 17  2  0
 16 20  1  0
 17 18  1  0
 17 21  1  0
 18 19  1  0
 18 27  1  0
 19 20  2  0
 20 28  1  0
 21 22  2  0
 21 29  1  0
 22 30  1  0
M  END
>  <group_name>  (1) 
JNS

>  <molecule_index>  (1) 
01681

>  <conformer_index>  (1) 
03

>  <method>  (1) 
openff-1.3.0

>  <basis>  (1) 
smirnoff

>  <program>  (1) 
openmm

>  <initial_energy>  (1) 
148.6445795597077 kilocalorie / mole

>  <final_energy>  (1) 
138.08344246622315 kilocalorie / mole

$$$$
