JNS-02456-02
     RDKit          3D

 41 44  0  0  0  0  0  0  0  0999 V2000
   -3.4849   -1.4799   -0.7032 F   0  0  0  0  0  0  0  0  0  0  0  0
   -2.5057   -0.8080   -1.3773 C   0  0  0  0  0  0  0  0  0  0  0  0
   -1.8882   -1.6849   -2.2245 F   0  0  0  0  0  0  0  0  0  0  0  0
   -3.0997    0.1634   -2.1317 F   0  0  0  0  0  0  0  0  0  0  0  0
   -1.5372   -0.1654   -0.3763 C   0  0  0  0  0  0  0  0  0  0  0  0
   -0.2211   -0.5070   -0.3623 N   0  0  0  0  0  0  0  0  0  0  0  0
    0.6103    0.0720    0.5277 C   0  0  0  0  0  0  0  0  0  0  0  0
    0.1443    1.0389    1.4353 C   0  0  0  0  0  0  0  0  0  0  0  0
   -1.1955    1.4064    1.4436 C   0  0  0  0  0  0  0  0  0  0  0  0
   -2.0374    0.7910    0.5270 C   0  0  0  0  0  0  0  0  0  0  0  0
    2.0205   -0.3384    0.5041 C   0  0  0  0  0  0  0  0  0  0  0  0
    2.8414   -0.2056    1.6445 C   0  0  0  0  0  0  0  0  0  0  0  0
    4.1380   -0.5708    1.6917 N   0  0  0  0  0  0  0  0  0  0  0  0
    4.6315   -1.0992    0.5650 C   0  0  0  0  0  0  0  0  0  0  0  0
    5.9673   -1.5853    0.3381 C   0  0  0  0  0  0  0  0  0  0  0  0
    6.0203   -2.0595   -0.9569 C   0  0  0  0  0  0  0  0  0  0  0  0
    4.7608   -1.8858   -1.5342 N   0  0  0  0  0  0  0  0  0  0  0  0
    4.3996   -2.2926   -2.8992 C   0  0  0  0  0  0  0  0  0  0  0  0
    4.3176   -3.8072   -3.0832 C   0  0  0  0  0  0  0  0  0  0  0  0
    4.7420   -4.2876   -4.1291 O   0  0  0  0  0  0  0  0  0  0  0  0
    3.8750   -4.6713   -2.0944 N   0  0  0  0  0  0  0  0  0  0  0  0
    3.5053   -6.0424   -2.3199 C   0  0  0  0  0  0  0  0  0  0  0  0
    2.3937   -5.8429   -1.2582 C   0  0  0  0  0  0  0  0  0  0  0  0
    1.1322   -5.9467   -1.7648 F   0  0  0  0  0  0  0  0  0  0  0  0
    2.5686   -6.5981   -0.1363 F   0  0  0  0  0  0  0  0  0  0  0  0
    2.8771   -4.3782   -1.1006 C   0  0  0  0  0  0  0  0  0  0  0  0
    3.9108   -1.2885   -0.6042 C   0  0  0  0  0  0  0  0  0  0  0  0
    2.5777   -0.9016   -0.6557 C   0  0  0  0  0  0  0  0  0  0  0  0
    0.8182    1.5273    2.1291 H   0  0  0  0  0  0  0  0  0  0  0  0
   -1.5719    2.1535    2.1393 H   0  0  0  0  0  0  0  0  0  0  0  0
   -3.0920    1.0508    0.5003 H   0  0  0  0  0  0  0  0  0  0  0  0
    2.4282    0.1963    2.5635 H   0  0  0  0  0  0  0  0  0  0  0  0
    6.7704   -1.5733    1.0665 H   0  0  0  0  0  0  0  0  0  0  0  0
    6.8898   -2.4989   -1.4409 H   0  0  0  0  0  0  0  0  0  0  0  0
    3.4368   -1.8596   -3.1760 H   0  0  0  0  0  0  0  0  0  0  0  0
    5.1438   -1.8983   -3.5955 H   0  0  0  0  0  0  0  0  0  0  0  0
    4.2725   -6.7678   -2.0330 H   0  0  0  0  0  0  0  0  0  0  0  0
    3.1256   -6.2538   -3.3250 H   0  0  0  0  0  0  0  0  0  0  0  0
    3.2805   -4.1476   -0.1093 H   0  0  0  0  0  0  0  0  0  0  0  0
    2.1270   -3.6393   -1.3992 H   0  0  0  0  0  0  0  0  0  0  0  0
    1.9894   -1.0330   -1.5608 H   0  0  0  0  0  0  0  0  0  0  0  0
  1  2  1  0
  2  3  1  0
  2  4  1  0
  2  5  1  0
  5  6  2  0
  5 10  1  0
  6  7  1  0
  7  8  2  0
  7 11  1  0
  8  9  1  0
  8 29  1  0
  9 10  2  0
  9 30  1  0
 10 31  1  0
 11 12  2  0
 11 28  1  0
 12 13  1  0
 12 32  1  0
 13 14  2  0
 14 15  1  0
 14 27  1  0
 15 16  2  0
 15 33  1  0
 16 17  1  0
 16 34  1  0
 17 18  1  0
 17 27  1  0
 18 19  1  0
 18 35  1  0
 18 36  1  0
 19 20  2  0
 19 21  1  0
 21 22  1  0
 21 26  1  0
 22 23  1  0
 22 37  1  0
 22 38  1  0
 23 24  1  0
 23 25  1  0
 23 26  1  0
 26 39  1  0
 26 40  1  0
 27 28  2  0
 28 41  1  0
M  END
>  <group_name>  (1) 
JNS

>  <molecule_index>  (1) 
02456

>  <conformer_index>  (1) 
02

>  <method>  (1) 
openff-1.3.0

>  <basis>  (1) 
smirnoff

>  <program>  (1) 
openmm

>  <initial_energy>  (1) 
142.41235111651326 kilocalorie / mole

>  <final_energy>  (1) 
129.8115903933011 kilocalorie / mole

$$$$
