JNS-02392-07
     RDKit          3D

 48 51  0  0  0  0  0  0  0  0999 V2000
   -0.5900    1.9727   -1.3193 C   0  0  0  0  0  0  0  0  0  0  0  0
   -0.1146    0.6916   -0.7046 C   0  0  0  0  0  0  0  0  0  0  0  0
    0.3492    0.6715    0.5904 C   0  0  0  0  0  0  0  0  0  0  0  0
    0.7572   -0.5259    1.1277 C   0  0  0  0  0  0  0  0  0  0  0  0
    1.2928   -0.5756    2.5268 C   0  0  0  0  0  0  0  0  0  0  0  0
    0.7441   -1.6360    0.4011 N   0  0  0  0  0  0  0  0  0  0  0  0
    0.2689   -1.5411   -0.8436 C   0  0  0  0  0  0  0  0  0  0  0  0
   -0.1857   -0.4268   -1.4094 N   0  0  0  0  0  0  0  0  0  0  0  0
    0.2387   -2.6922   -1.6141 N   0  0  0  0  0  0  0  0  0  0  0  0
    0.8298   -3.9547   -1.2234 C   0  0  0  0  0  0  0  0  0  0  0  0
    1.2368   -4.1129   -2.7137 C   0  0  2  0  0  0  0  0  0  0  0  0
    2.7598   -4.1307   -2.9534 C   0  0  0  0  0  0  0  0  0  0  0  0
    3.4592   -2.8812   -2.3994 C   0  0  0  0  0  0  0  0  0  0  0  0
    2.8270   -1.6381   -2.8485 N   0  0  0  0  0  0  0  0  0  0  0  0
    1.5599   -1.6942   -3.5954 C   0  0  0  0  0  0  0  0  0  0  0  0
    0.5683   -2.7420   -3.0326 C   0  0  2  0  0  0  0  0  0  0  0  0
    3.3992   -0.4116   -2.5425 C   0  0  0  0  0  0  0  0  0  0  0  0
    2.9243    0.6267   -2.9885 O   0  0  0  0  0  0  0  0  0  0  0  0
    4.5350   -0.3056   -1.6340 C   0  0  0  0  0  0  0  0  0  0  0  0
    4.3390   -0.5843   -0.2788 C   0  0  0  0  0  0  0  0  0  0  0  0
    5.4161   -0.4583    0.5841 C   0  0  0  0  0  0  0  0  0  0  0  0
    6.6515   -0.0608    0.0810 C   0  0  0  0  0  0  0  0  0  0  0  0
    6.8563    0.2050   -1.2194 N   0  0  0  0  0  0  0  0  0  0  0  0
    5.8145    0.1001   -2.0955 C   0  0  0  0  0  0  0  0  0  0  0  0
    6.0773    0.3650   -3.5937 C   0  0  0  0  0  0  0  0  0  0  0  0
    5.5855   -0.6492   -4.3677 F   0  0  0  0  0  0  0  0  0  0  0  0
    5.5229    1.5477   -3.9863 F   0  0  0  0  0  0  0  0  0  0  0  0
    7.4137    0.4359   -3.8739 F   0  0  0  0  0  0  0  0  0  0  0  0
   -1.0641    2.6070   -0.5659 H   0  0  0  0  0  0  0  0  0  0  0  0
   -1.3177    1.7640   -2.1088 H   0  0  0  0  0  0  0  0  0  0  0  0
    0.2594    2.5043   -1.7572 H   0  0  0  0  0  0  0  0  0  0  0  0
    0.3887    1.5832    1.1733 H   0  0  0  0  0  0  0  0  0  0  0  0
    0.4625   -0.5687    3.2380 H   0  0  0  0  0  0  0  0  0  0  0  0
    1.9359    0.2878    2.7170 H   0  0  0  0  0  0  0  0  0  0  0  0
    1.8772   -1.4879    2.6776 H   0  0  0  0  0  0  0  0  0  0  0  0
    0.1028   -4.6952   -0.8741 H   0  0  0  0  0  0  0  0  0  0  0  0
    1.6644   -3.8840   -0.5186 H   0  0  0  0  0  0  0  0  0  0  0  0
    0.7288   -4.9516   -3.1986 H   0  0  0  0  0  0  0  0  0  0  0  0
    2.9456   -4.1910   -4.0306 H   0  0  0  0  0  0  0  0  0  0  0  0
    3.1963   -5.0242   -2.4969 H   0  0  0  0  0  0  0  0  0  0  0  0
    3.4461   -2.9226   -1.3067 H   0  0  0  0  0  0  0  0  0  0  0  0
    4.5057   -2.8978   -2.7214 H   0  0  0  0  0  0  0  0  0  0  0  0
    1.7739   -1.9307   -4.6417 H   0  0  0  0  0  0  0  0  0  0  0  0
    1.0604   -0.7208   -3.5974 H   0  0  0  0  0  0  0  0  0  0  0  0
   -0.3245   -2.8249   -3.6614 H   0  0  0  0  0  0  0  0  0  0  0  0
    3.3609   -0.8871    0.0891 H   0  0  0  0  0  0  0  0  0  0  0  0
    5.3075   -0.6612    1.6443 H   0  0  0  0  0  0  0  0  0  0  0  0
    7.4881    0.0351    0.7669 H   0  0  0  0  0  0  0  0  0  0  0  0
  1  2  1  0
  1 29  1  0
  1 30  1  0
  1 31  1  0
  2  3  2  0
  2  8  1  0
  3  4  1  0
  3 32  1  0
  4  5  1  0
  4  6  2  0
  5 33  1  0
  5 34  1  0
  5 35  1  0
  6  7  1  0
  7  8  2  0
  7  9  1  0
  9 10  1  0
  9 16  1  0
 10 11  1  0
 10 36  1  0
 10 37  1  0
 11 12  1  0
 11 16  1  0
 11 38  1  6
 12 13  1  0
 12 39  1  0
 12 40  1  0
 13 14  1  0
 13 41  1  0
 13 42  1  0
 14 15  1  0
 14 17  1  0
 15 16  1  0
 15 43  1  0
 15 44  1  0
 16 45  1  6
 17 18  2  0
 17 19  1  0
 19 20  2  0
 19 24  1  0
 20 21  1  0
 20 46  1  0
 21 22  2  0
 21 47  1  0
 22 23  1  0
 22 48  1  0
 23 24  2  0
 24 25  1  0
 25 26  1  0
 25 27  1  0
 25 28  1  0
M  END
>  <group_name>  (1) 
JNS

>  <molecule_index>  (1) 
02392

>  <conformer_index>  (1) 
07

>  <method>  (1) 
openff-1.3.0

>  <basis>  (1) 
smirnoff

>  <program>  (1) 
openmm

>  <initial_energy>  (1) 
-61.77134265500145 kilocalorie / mole

>  <final_energy>  (1) 
-75.53331304297245 kilocalorie / mole

$$$$
