JNS-02157-01
     RDKit          3D

 42 45  0  0  0  0  0  0  0  0999 V2000
    1.6627    2.3240    2.4921 C   0  0  0  0  0  0  0  0  0  0  0  0
    0.6990    3.2005    1.6838 C   0  0  2  0  0  0  0  0  0  0  0  0
   -0.7633    2.9681    2.0946 C   0  0  0  0  0  0  0  0  0  0  0  0
   -1.6629    3.9138    1.3200 C   0  0  0  0  0  0  0  0  0  0  0  0
   -1.2387    4.5281    0.1771 C   0  0  0  0  0  0  0  0  0  0  0  0
    0.1151    4.2967   -0.4571 C   0  0  0  0  0  0  0  0  0  0  0  0
    0.7814    3.1634    0.2107 N   0  0  0  0  0  0  0  0  0  0  0  0
    1.2559    2.1053   -0.5661 C   0  0  0  0  0  0  0  0  0  0  0  0
    1.3883    2.2637   -1.7760 O   0  0  0  0  0  0  0  0  0  0  0  0
    1.4190    0.7369   -0.0654 C   0  0  0  0  0  0  0  0  0  0  0  0
    0.3003   -0.0504    0.2096 C   0  0  0  0  0  0  0  0  0  0  0  0
    0.4608   -1.3537    0.6675 C   0  0  0  0  0  0  0  0  0  0  0  0
    1.6661   -1.9076    0.8710 N   0  0  0  0  0  0  0  0  0  0  0  0
    2.7854   -1.1785    0.5911 C   0  0  0  0  0  0  0  0  0  0  0  0
    2.6853    0.1573    0.1106 C   0  0  0  0  0  0  0  0  0  0  0  0
    4.1119    1.1148   -0.2520 Cl  0  0  0  0  0  0  0  0  0  0  0  0
    4.1665   -1.8148    0.8171 C   0  0  0  0  0  0  0  0  0  0  0  0
    4.8739   -1.8653   -0.3497 F   0  0  0  0  0  0  0  0  0  0  0  0
    4.8725   -1.0979    1.7415 F   0  0  0  0  0  0  0  0  0  0  0  0
    4.0792   -3.0944    1.2895 F   0  0  0  0  0  0  0  0  0  0  0  0
   -2.2210    5.3703   -0.3016 N   0  0  0  0  0  0  0  0  0  0  0  0
   -3.2334    5.3029    0.5254 N   0  0  0  0  0  0  0  0  0  0  0  0
   -2.9400    4.4238    1.5275 N   0  0  0  0  0  0  0  0  0  0  0  0
   -3.8423    4.0772    2.5612 C   0  0  0  0  0  0  0  0  0  0  0  0
   -5.0307    4.7159    2.6167 N   0  0  0  0  0  0  0  0  0  0  0  0
   -5.8873    4.3876    3.5867 C   0  0  0  0  0  0  0  0  0  0  0  0
   -5.5867    3.4190    4.5231 C   0  0  0  0  0  0  0  0  0  0  0  0
   -6.4609    3.0878    5.5089 F   0  0  0  0  0  0  0  0  0  0  0  0
   -4.3573    2.8011    4.4128 C   0  0  0  0  0  0  0  0  0  0  0  0
   -3.4882    3.1181    3.4468 N   0  0  0  0  0  0  0  0  0  0  0  0
    2.6871    2.4524    2.1301 H   0  0  0  0  0  0  0  0  0  0  0  0
    1.6376    2.6248    3.5439 H   0  0  0  0  0  0  0  0  0  0  0  0
    1.3856    1.2682    2.4538 H   0  0  0  0  0  0  0  0  0  0  0  0
    0.9544    4.2272    1.9715 H   0  0  0  0  0  0  0  0  0  0  0  0
   -0.8683    3.1450    3.1691 H   0  0  0  0  0  0  0  0  0  0  0  0
   -1.0613    1.9368    1.8889 H   0  0  0  0  0  0  0  0  0  0  0  0
   -0.0397    4.1167   -1.5258 H   0  0  0  0  0  0  0  0  0  0  0  0
    0.7254    5.1998   -0.3639 H   0  0  0  0  0  0  0  0  0  0  0  0
   -0.7012    0.3381    0.0511 H   0  0  0  0  0  0  0  0  0  0  0  0
   -0.4246   -1.9487    0.8724 H   0  0  0  0  0  0  0  0  0  0  0  0
   -6.8455    4.8968    3.6391 H   0  0  0  0  0  0  0  0  0  0  0  0
   -4.0880    2.0334    5.1328 H   0  0  0  0  0  0  0  0  0  0  0  0
  1  2  1  0
  1 31  1  0
  1 32  1  0
  1 33  1  0
  2  3  1  0
  2  7  1  0
  2 34  1  1
  3  4  1  0
  3 35  1  0
  3 36  1  0
  4  5  2  0
  4 23  1  0
  5  6  1  0
  5 21  1  0
  6  7  1  0
  6 37  1  0
  6 38  1  0
  7  8  1  0
  8  9  2  0
  8 10  1  0
 10 11  2  0
 10 15  1  0
 11 12  1  0
 11 39  1  0
 12 13  2  0
 12 40  1  0
 13 14  1  0
 14 15  2  0
 14 17  1  0
 15 16  1  0
 17 18  1  0
 17 19  1  0
 17 20  1  0
 21 22  2  0
 22 23  1  0
 23 24  1  0
 24 25  2  0
 24 30  1  0
 25 26  1  0
 26 27  2  0
 26 41  1  0
 27 28  1  0
 27 29  1  0
 29 30  2  0
 29 42  1  0
M  END
>  <group_name>  (1) 
JNS

>  <molecule_index>  (1) 
02157

>  <conformer_index>  (1) 
01

>  <method>  (1) 
openff-1.3.0

>  <basis>  (1) 
smirnoff

>  <program>  (1) 
openmm

>  <initial_energy>  (1) 
97.20038353152555 kilocalorie / mole

>  <final_energy>  (1) 
87.0347953885192 kilocalorie / mole

$$$$
