JNS-02239-00
     RDKit          3D

 53 57  0  0  0  0  0  0  0  0999 V2000
   -3.8573   -0.1528    0.6228 C   0  0  0  0  0  0  0  0  0  0  0  0
   -2.5554    0.3581    0.1986 N   0  0  0  0  0  0  0  0  0  0  0  0
   -1.3425   -0.2198    0.5297 C   0  0  0  0  0  0  0  0  0  0  0  0
   -0.3778    0.5419   -0.0689 C   0  0  0  0  0  0  0  0  0  0  0  0
   -1.1052    1.5657   -0.7903 C   0  0  0  0  0  0  0  0  0  0  0  0
   -2.3950    1.4373   -0.6060 N   0  0  0  0  0  0  0  0  0  0  0  0
    1.0616    0.2869   -0.0186 C   0  0  0  0  0  0  0  0  0  0  0  0
    2.0295    1.2909   -0.0949 C   0  0  0  0  0  0  0  0  0  0  0  0
    1.6822    2.7804   -0.1649 C   0  0  0  0  0  0  0  0  0  0  0  0
    2.8623    3.6590    0.2776 C   0  0  1  0  0  0  0  0  0  0  0  0
    3.1214    3.4843    1.7992 C   0  0  0  0  0  0  0  0  0  0  0  0
    4.6021    3.2400    2.1211 C   0  0  0  0  0  0  0  0  0  0  0  0
    5.2001    2.0916    1.2783 C   0  0  0  0  0  0  0  0  0  0  0  0
    4.5158    1.9000   -0.0972 C   0  0  2  0  0  0  0  0  0  0  0  0
    4.0018    3.2059   -0.5226 N   0  0  0  0  0  0  0  0  0  0  0  0
    4.2542    3.7485   -1.7780 C   0  0  0  0  0  0  0  0  0  0  0  0
    3.5043    4.6174   -2.2165 O   0  0  0  0  0  0  0  0  0  0  0  0
    5.3170    3.2667   -2.6699 C   0  0  0  0  0  0  0  0  0  0  0  0
    5.0207    2.9222   -3.9917 C   0  0  0  0  0  0  0  0  0  0  0  0
    6.0267    2.4707   -4.8431 C   0  0  0  0  0  0  0  0  0  0  0  0
    7.3073    2.3502   -4.4524 N   0  0  0  0  0  0  0  0  0  0  0  0
    7.6370    2.7101   -3.1775 C   0  0  0  0  0  0  0  0  0  0  0  0
    6.6575    3.1831   -2.2683 C   0  0  0  0  0  0  0  0  0  0  0  0
    7.0116    3.5841   -1.0188 F   0  0  0  0  0  0  0  0  0  0  0  0
    9.0897    2.6045   -2.7023 C   0  0  0  0  0  0  0  0  0  0  0  0
    9.1684    1.7778   -1.6177 F   0  0  0  0  0  0  0  0  0  0  0  0
    9.5645    3.8364   -2.3541 F   0  0  0  0  0  0  0  0  0  0  0  0
    9.9190    2.0986   -3.6630 F   0  0  0  0  0  0  0  0  0  0  0  0
    3.3710    0.8889   -0.0309 C   0  0  0  0  0  0  0  0  0  0  0  0
    3.6991   -0.3996    0.0554 N   0  0  0  0  0  0  0  0  0  0  0  0
    2.7109   -1.2924    0.1268 C   0  0  0  0  0  0  0  0  0  0  0  0
    3.0872   -2.7323    0.2809 C   0  0  0  0  0  0  0  0  0  0  0  0
    1.4142   -0.9903    0.1198 N   0  0  0  0  0  0  0  0  0  0  0  0
   -3.9998    0.0287    1.6915 H   0  0  0  0  0  0  0  0  0  0  0  0
   -4.6535    0.3542    0.0700 H   0  0  0  0  0  0  0  0  0  0  0  0
   -3.9234   -1.2253    0.4203 H   0  0  0  0  0  0  0  0  0  0  0  0
   -1.1821   -1.1068    1.1368 H   0  0  0  0  0  0  0  0  0  0  0  0
   -0.6622    2.3278   -1.4225 H   0  0  0  0  0  0  0  0  0  0  0  0
    0.8189    3.0086    0.4684 H   0  0  0  0  0  0  0  0  0  0  0  0
    1.4247    3.0394   -1.1967 H   0  0  0  0  0  0  0  0  0  0  0  0
    2.6441    4.7150    0.0827 H   0  0  0  0  0  0  0  0  0  0  0  0
    2.5484    2.6390    2.1939 H   0  0  0  0  0  0  0  0  0  0  0  0
    2.7689    4.3745    2.3291 H   0  0  0  0  0  0  0  0  0  0  0  0
    5.1556    4.1598    1.9027 H   0  0  0  0  0  0  0  0  0  0  0  0
    4.7294    3.0283    3.1874 H   0  0  0  0  0  0  0  0  0  0  0  0
    5.1600    1.1521    1.8394 H   0  0  0  0  0  0  0  0  0  0  0  0
    6.2600    2.3128    1.1238 H   0  0  0  0  0  0  0  0  0  0  0  0
    5.2470    1.4890   -0.7978 H   0  0  0  0  0  0  0  0  0  0  0  0
    4.0038    3.0065   -4.3652 H   0  0  0  0  0  0  0  0  0  0  0  0
    5.7676    2.2030   -5.8635 H   0  0  0  0  0  0  0  0  0  0  0  0
    2.3181   -3.2652    0.8463 H   0  0  0  0  0  0  0  0  0  0  0  0
    4.0383   -2.8192    0.8130 H   0  0  0  0  0  0  0  0  0  0  0  0
    3.1864   -3.1902   -0.7061 H   0  0  0  0  0  0  0  0  0  0  0  0
  1  2  1  0
  1 34  1  0
  1 35  1  0
  1 36  1  0
  2  3  1  0
  2  6  1  0
  3  4  2  0
  3 37  1  0
  4  5  1  0
  4  7  1  0
  5  6  2  0
  5 38  1  0
  7  8  1  0
  7 33  2  0
  8  9  1  0
  8 29  2  0
  9 10  1  0
  9 39  1  0
  9 40  1  0
 10 11  1  0
 10 15  1  0
 10 41  1  1
 11 12  1  0
 11 42  1  0
 11 43  1  0
 12 13  1  0
 12 44  1  0
 12 45  1  0
 13 14  1  0
 13 46  1  0
 13 47  1  0
 14 15  1  0
 14 29  1  0
 14 48  1  6
 15 16  1  0
 16 17  2  0
 16 18  1  0
 18 19  2  0
 18 23  1  0
 19 20  1  0
 19 49  1  0
 20 21  2  0
 20 50  1  0
 21 22  1  0
 22 23  2  0
 22 25  1  0
 23 24  1  0
 25 26  1  0
 25 27  1  0
 25 28  1  0
 29 30  1  0
 30 31  2  0
 31 32  1  0
 31 33  1  0
 32 51  1  0
 32 52  1  0
 32 53  1  0
M  END
>  <group_name>  (1) 
JNS

>  <molecule_index>  (1) 
02239

>  <conformer_index>  (1) 
00

>  <method>  (1) 
openff-1.3.0

>  <basis>  (1) 
smirnoff

>  <program>  (1) 
openmm

>  <initial_energy>  (1) 
28.246058825811094 kilocalorie / mole

>  <final_energy>  (1) 
16.547859906903142 kilocalorie / mole

$$$$
