JNS-02456-01
     RDKit          3D

 41 44  0  0  0  0  0  0  0  0999 V2000
   -3.4788   -0.8782   -1.4558 F   0  0  0  0  0  0  0  0  0  0  0  0
   -2.5303    0.1015   -1.5340 C   0  0  0  0  0  0  0  0  0  0  0  0
   -1.8725   -0.0357   -2.7236 F   0  0  0  0  0  0  0  0  0  0  0  0
   -3.1696    1.3086   -1.5366 F   0  0  0  0  0  0  0  0  0  0  0  0
   -1.5974    0.0145   -0.3194 C   0  0  0  0  0  0  0  0  0  0  0  0
   -0.2604   -0.1754   -0.4771 N   0  0  0  0  0  0  0  0  0  0  0  0
    0.5384   -0.2434    0.6070 C   0  0  0  0  0  0  0  0  0  0  0  0
    0.0096   -0.1386    1.9056 C   0  0  0  0  0  0  0  0  0  0  0  0
   -1.3525    0.0561    2.0966 C   0  0  0  0  0  0  0  0  0  0  0  0
   -2.1555    0.1351    0.9670 C   0  0  0  0  0  0  0  0  0  0  0  0
    1.9763   -0.4478    0.3845 C   0  0  0  0  0  0  0  0  0  0  0  0
    2.9290   -0.0447    1.3449 C   0  0  0  0  0  0  0  0  0  0  0  0
    4.2606   -0.2092    1.2100 N   0  0  0  0  0  0  0  0  0  0  0  0
    4.6576   -0.7792    0.0661 C   0  0  0  0  0  0  0  0  0  0  0  0
    6.0056   -1.0775   -0.3438 C   0  0  0  0  0  0  0  0  0  0  0  0
    5.9387   -1.6669   -1.5903 C   0  0  0  0  0  0  0  0  0  0  0  0
    4.5935   -1.7501   -1.9577 N   0  0  0  0  0  0  0  0  0  0  0  0
    4.0908   -2.3176   -3.2162 C   0  0  0  0  0  0  0  0  0  0  0  0
    3.2521   -3.5930   -3.0910 C   0  0  0  0  0  0  0  0  0  0  0  0
    2.5977   -3.9354   -4.0699 O   0  0  0  0  0  0  0  0  0  0  0  0
    3.1225   -4.3460   -1.9321 N   0  0  0  0  0  0  0  0  0  0  0  0
    4.1211   -4.5425   -0.9152 C   0  0  0  0  0  0  0  0  0  0  0  0
    3.5999   -5.9961   -0.7826 C   0  0  0  0  0  0  0  0  0  0  0  0
    3.0427   -6.2665    0.4322 F   0  0  0  0  0  0  0  0  0  0  0  0
    4.5154   -6.9350   -1.1570 F   0  0  0  0  0  0  0  0  0  0  0  0
    2.5608   -5.6693   -1.8847 C   0  0  0  0  0  0  0  0  0  0  0  0
    3.8101   -1.1981   -0.9464 C   0  0  0  0  0  0  0  0  0  0  0  0
    2.4379   -1.0350   -0.8057 C   0  0  0  0  0  0  0  0  0  0  0  0
    0.6456   -0.2265    2.7782 H   0  0  0  0  0  0  0  0  0  0  0  0
   -1.7769    0.1384    3.0950 H   0  0  0  0  0  0  0  0  0  0  0  0
   -3.2262    0.2862    1.0724 H   0  0  0  0  0  0  0  0  0  0  0  0
    2.6020    0.4431    2.2570 H   0  0  0  0  0  0  0  0  0  0  0  0
    6.8971   -0.8598    0.2339 H   0  0  0  0  0  0  0  0  0  0  0  0
    6.7873   -2.0019   -2.1821 H   0  0  0  0  0  0  0  0  0  0  0  0
    3.4814   -1.5623   -3.7188 H   0  0  0  0  0  0  0  0  0  0  0  0
    4.9353   -2.5389   -3.8723 H   0  0  0  0  0  0  0  0  0  0  0  0
    3.9745   -3.9361   -0.0157 H   0  0  0  0  0  0  0  0  0  0  0  0
    5.1562   -4.4808   -1.2646 H   0  0  0  0  0  0  0  0  0  0  0  0
    2.6884   -6.2536   -2.8020 H   0  0  0  0  0  0  0  0  0  0  0  0
    1.5215   -5.7032   -1.5441 H   0  0  0  0  0  0  0  0  0  0  0  0
    1.7529   -1.3581   -1.5872 H   0  0  0  0  0  0  0  0  0  0  0  0
  1  2  1  0
  2  3  1  0
  2  4  1  0
  2  5  1  0
  5  6  2  0
  5 10  1  0
  6  7  1  0
  7  8  2  0
  7 11  1  0
  8  9  1  0
  8 29  1  0
  9 10  2  0
  9 30  1  0
 10 31  1  0
 11 12  2  0
 11 28  1  0
 12 13  1  0
 12 32  1  0
 13 14  2  0
 14 15  1  0
 14 27  1  0
 15 16  2  0
 15 33  1  0
 16 17  1  0
 16 34  1  0
 17 18  1  0
 17 27  1  0
 18 19  1  0
 18 35  1  0
 18 36  1  0
 19 20  2  0
 19 21  1  0
 21 22  1  0
 21 26  1  0
 22 23  1  0
 22 37  1  0
 22 38  1  0
 23 24  1  0
 23 25  1  0
 23 26  1  0
 26 39  1  0
 26 40  1  0
 27 28  2  0
 28 41  1  0
M  END
>  <group_name>  (1) 
JNS

>  <molecule_index>  (1) 
02456

>  <conformer_index>  (1) 
01

>  <method>  (1) 
openff-1.3.0

>  <basis>  (1) 
smirnoff

>  <program>  (1) 
openmm

>  <initial_energy>  (1) 
143.22771615131418 kilocalorie / mole

>  <final_energy>  (1) 
130.94340658239517 kilocalorie / mole

$$$$
