JNS-01548-02
     RDKit          3D

 36 39  0  0  0  0  0  0  0  0999 V2000
   -2.8138   -0.5902    2.5558 C   0  0  0  0  0  0  0  0  0  0  0  0
   -2.0992   -0.3198    1.2545 C   0  0  0  0  0  0  0  0  0  0  0  0
   -0.6968   -0.2255    1.2100 C   0  0  0  0  0  0  0  0  0  0  0  0
   -0.0075    0.0247    0.0037 C   0  0  0  0  0  0  0  0  0  0  0  0
   -0.7607    0.1542   -1.1794 C   0  0  0  0  0  0  0  0  0  0  0  0
   -2.1525    0.0641   -1.1299 C   0  0  0  0  0  0  0  0  0  0  0  0
   -2.8170   -0.1658    0.0612 C   0  0  0  0  0  0  0  0  0  0  0  0
   -4.2040   -0.2352   -0.0322 N   0  0  0  0  0  0  0  0  0  0  0  0
   -4.5729   -0.0649   -1.2713 C   0  0  0  0  0  0  0  0  0  0  0  0
   -5.8936   -0.0930   -1.6031 O   0  0  0  0  0  0  0  0  0  0  0  0
   -3.2809    0.1971   -2.4526 S   0  0  0  0  0  0  0  0  0  0  0  0
    1.3997    0.1060   -0.0073 N   0  0  0  0  0  0  0  0  0  0  0  0
    2.2434   -0.7546    0.6718 C   0  0  0  0  0  0  0  0  0  0  0  0
    3.5128   -0.4340    0.2400 C   0  0  0  0  0  0  0  0  0  0  0  0
    4.6091   -1.1331    0.7111 C   0  0  0  0  0  0  0  0  0  0  0  0
    4.3565   -2.1584    1.6233 C   0  0  0  0  0  0  0  0  0  0  0  0
    3.0343   -2.4550    2.0345 C   0  0  0  0  0  0  0  0  0  0  0  0
    1.9783   -1.7435    1.5483 N   0  0  0  0  0  0  0  0  0  0  0  0
    2.8164   -3.5890    3.0443 C   0  0  0  0  0  0  0  0  0  0  0  0
    3.2299   -4.7720    2.5019 F   0  0  0  0  0  0  0  0  0  0  0  0
    3.5588   -3.3551    4.1666 F   0  0  0  0  0  0  0  0  0  0  0  0
    1.5099   -3.7215    3.4220 F   0  0  0  0  0  0  0  0  0  0  0  0
    3.4924    0.6183   -0.6576 N   0  0  0  0  0  0  0  0  0  0  0  0
    2.2199    0.9558   -0.7844 C   0  0  0  0  0  0  0  0  0  0  0  0
    1.7857    2.1726   -1.6117 C   0  0  0  0  0  0  0  0  0  0  0  0
    0.6385    2.7387   -1.1358 F   0  0  0  0  0  0  0  0  0  0  0  0
    2.7415    3.1483   -1.5997 F   0  0  0  0  0  0  0  0  0  0  0  0
    1.5801    1.8023   -2.9098 F   0  0  0  0  0  0  0  0  0  0  0  0
   -3.4567    0.2578    2.8098 H   0  0  0  0  0  0  0  0  0  0  0  0
   -3.4374   -1.4842    2.4591 H   0  0  0  0  0  0  0  0  0  0  0  0
   -2.1027   -0.7496    3.3714 H   0  0  0  0  0  0  0  0  0  0  0  0
   -0.1390   -0.3413    2.1345 H   0  0  0  0  0  0  0  0  0  0  0  0
   -0.2862    0.3005   -2.1433 H   0  0  0  0  0  0  0  0  0  0  0  0
   -5.9824    0.0490   -2.5542 H   0  0  0  0  0  0  0  0  0  0  0  0
    5.6110   -0.8800    0.3747 H   0  0  0  0  0  0  0  0  0  0  0  0
    5.1833   -2.7377    2.0239 H   0  0  0  0  0  0  0  0  0  0  0  0
  1  2  1  0
  1 29  1  0
  1 30  1  0
  1 31  1  0
  2  3  2  0
  2  7  1  0
  3  4  1  0
  3 32  1  0
  4  5  2  0
  4 12  1  0
  5  6  1  0
  5 33  1  0
  6  7  2  0
  6 11  1  0
  7  8  1  0
  8  9  2  0
  9 10  1  0
  9 11  1  0
 10 34  1  0
 12 13  1  0
 12 24  1  0
 13 14  1  0
 13 18  2  0
 14 15  2  0
 14 23  1  0
 15 16  1  0
 15 35  1  0
 16 17  2  0
 16 36  1  0
 17 18  1  0
 17 19  1  0
 19 20  1  0
 19 21  1  0
 19 22  1  0
 23 24  2  0
 24 25  1  0
 25 26  1  0
 25 27  1  0
 25 28  1  0
M  END
>  <group_name>  (1) 
JNS

>  <molecule_index>  (1) 
01548

>  <conformer_index>  (1) 
02

>  <method>  (1) 
openff-1.3.0

>  <basis>  (1) 
smirnoff

>  <program>  (1) 
openmm

>  <initial_energy>  (1) 
141.95873374377015 kilocalorie / mole

>  <final_energy>  (1) 
131.418949298422 kilocalorie / mole

$$$$
