JNS-01972-00
     RDKit          3D

 38 40  0  0  0  0  0  0  0  0999 V2000
   -0.4029    0.0846    2.0287 F   0  0  0  0  0  0  0  0  0  0  0  0
    0.1139   -0.4725    0.8932 C   0  0  0  0  0  0  0  0  0  0  0  0
   -0.5473    0.0251   -0.1935 F   0  0  0  0  0  0  0  0  0  0  0  0
   -0.1783   -1.8069    0.9566 F   0  0  0  0  0  0  0  0  0  0  0  0
    1.6277   -0.2145    0.7723 C   0  0  0  0  0  0  0  0  0  0  0  0
    2.4580   -1.2708    0.5424 N   0  0  0  0  0  0  0  0  0  0  0  0
    3.7860   -1.0511    0.4808 C   0  0  0  0  0  0  0  0  0  0  0  0
    4.3937    0.2136    0.6471 C   0  0  0  0  0  0  0  0  0  0  0  0
    3.5426    1.2935    0.8812 C   0  0  0  0  0  0  0  0  0  0  0  0
    2.1610    1.0959    0.9373 C   0  0  0  0  0  0  0  0  0  0  0  0
    1.3246    2.2726    1.1814 C   0  0  0  0  0  0  0  0  0  0  0  0
    1.3421    2.8965    2.4373 C   0  0  0  0  0  0  0  0  0  0  0  0
    0.5580    4.0307    2.6784 C   0  0  0  0  0  0  0  0  0  0  0  0
   -0.2456    4.5547    1.6606 C   0  0  0  0  0  0  0  0  0  0  0  0
   -0.2604    3.9454    0.4018 C   0  0  0  0  0  0  0  0  0  0  0  0
    0.5249    2.8118    0.1627 C   0  0  0  0  0  0  0  0  0  0  0  0
    5.7950    0.4056    0.5838 N   0  0  0  0  0  0  0  0  0  0  0  0
    6.3869    1.6954    0.1518 C   0  0  0  0  0  0  0  0  0  0  0  0
    7.4942    1.4670   -0.8951 C   0  0  0  0  0  0  0  0  0  0  0  0
    8.4794    0.4698   -0.4319 N   0  0  0  0  0  0  0  0  0  0  0  0
    7.8373   -0.8262   -0.1363 C   0  0  0  0  0  0  0  0  0  0  0  0
    6.7565   -0.6650    0.9474 C   0  0  0  0  0  0  0  0  0  0  0  0
    4.4034   -1.9171    0.2696 H   0  0  0  0  0  0  0  0  0  0  0  0
    3.9311    2.2938    1.0382 H   0  0  0  0  0  0  0  0  0  0  0  0
    1.9614    2.4901    3.2319 H   0  0  0  0  0  0  0  0  0  0  0  0
    0.5709    4.5012    3.6573 H   0  0  0  0  0  0  0  0  0  0  0  0
   -0.8577    5.4325    1.8474 H   0  0  0  0  0  0  0  0  0  0  0  0
   -0.8823    4.3504   -0.3915 H   0  0  0  0  0  0  0  0  0  0  0  0
    0.5135    2.3504   -0.8208 H   0  0  0  0  0  0  0  0  0  0  0  0
    5.6335    2.3485   -0.2976 H   0  0  0  0  0  0  0  0  0  0  0  0
    6.8046    2.2102    1.0224 H   0  0  0  0  0  0  0  0  0  0  0  0
    7.0323    1.1123   -1.8228 H   0  0  0  0  0  0  0  0  0  0  0  0
    7.9923    2.4163   -1.1162 H   0  0  0  0  0  0  0  0  0  0  0  0
    8.9697    0.8163    0.3931 H   0  0  0  0  0  0  0  0  0  0  0  0
    7.3727   -1.2201   -1.0466 H   0  0  0  0  0  0  0  0  0  0  0  0
    8.5866   -1.5520    0.1957 H   0  0  0  0  0  0  0  0  0  0  0  0
    6.2658   -1.6274    1.1084 H   0  0  0  0  0  0  0  0  0  0  0  0
    7.2376   -0.3966    1.8931 H   0  0  0  0  0  0  0  0  0  0  0  0
  1  2  1  0
  2  3  1  0
  2  4  1  0
  2  5  1  0
  5  6  2  0
  5 10  1  0
  6  7  1  0
  7  8  2  0
  7 23  1  0
  8  9  1  0
  8 17  1  0
  9 10  2  0
  9 24  1  0
 10 11  1  0
 11 12  2  0
 11 16  1  0
 12 13  1  0
 12 25  1  0
 13 14  2  0
 13 26  1  0
 14 15  1  0
 14 27  1  0
 15 16  2  0
 15 28  1  0
 16 29  1  0
 17 18  1  0
 17 22  1  0
 18 19  1  0
 18 30  1  0
 18 31  1  0
 19 20  1  0
 19 32  1  0
 19 33  1  0
 20 21  1  0
 20 34  1  0
 21 22  1  0
 21 35  1  0
 21 36  1  0
 22 37  1  0
 22 38  1  0
M  END
>  <group_name>  (1) 
JNS

>  <molecule_index>  (1) 
01972

>  <conformer_index>  (1) 
00

>  <method>  (1) 
openff-1.3.0

>  <basis>  (1) 
smirnoff

>  <program>  (1) 
openmm

>  <initial_energy>  (1) 
188.94123673139336 kilocalorie / mole

>  <final_energy>  (1) 
181.9930841997234 kilocalorie / mole

$$$$
