JNS-02456-03
     RDKit          3D

 41 44  0  0  0  0  0  0  0  0999 V2000
   -2.6465    1.9099    2.5929 F   0  0  0  0  0  0  0  0  0  0  0  0
   -2.0188    2.2264    1.4218 C   0  0  0  0  0  0  0  0  0  0  0  0
   -1.0390    3.1377    1.6976 F   0  0  0  0  0  0  0  0  0  0  0  0
   -2.9341    2.8188    0.5991 F   0  0  0  0  0  0  0  0  0  0  0  0
   -1.4817    0.9498    0.7622 C   0  0  0  0  0  0  0  0  0  0  0  0
   -0.1571    0.8088    0.4868 N   0  0  0  0  0  0  0  0  0  0  0  0
    0.2871   -0.3222   -0.0963 C   0  0  0  0  0  0  0  0  0  0  0  0
   -0.5944   -1.3704   -0.4120 C   0  0  0  0  0  0  0  0  0  0  0  0
   -1.9518   -1.2546   -0.1421 C   0  0  0  0  0  0  0  0  0  0  0  0
   -2.3910   -0.0779    0.4488 C   0  0  0  0  0  0  0  0  0  0  0  0
    1.7226   -0.4331   -0.3857 C   0  0  0  0  0  0  0  0  0  0  0  0
    2.6407    0.3686    0.3316 C   0  0  0  0  0  0  0  0  0  0  0  0
    3.9790    0.3329    0.1498 N   0  0  0  0  0  0  0  0  0  0  0  0
    4.4131   -0.5178   -0.7853 C   0  0  0  0  0  0  0  0  0  0  0  0
    5.7748   -0.7628   -1.1857 C   0  0  0  0  0  0  0  0  0  0  0  0
    5.7500   -1.7223   -2.1779 C   0  0  0  0  0  0  0  0  0  0  0  0
    4.4181   -2.0823   -2.3964 N   0  0  0  0  0  0  0  0  0  0  0  0
    3.9573   -3.1113   -3.3382 C   0  0  0  0  0  0  0  0  0  0  0  0
    3.1645   -4.2432   -2.6828 C   0  0  0  0  0  0  0  0  0  0  0  0
    2.2248   -4.7270   -3.3050 O   0  0  0  0  0  0  0  0  0  0  0  0
    3.3782   -4.6780   -1.3844 N   0  0  0  0  0  0  0  0  0  0  0  0
    2.9039   -5.9268   -0.8537 C   0  0  0  0  0  0  0  0  0  0  0  0
    4.2190   -5.9929   -0.0351 C   0  0  0  0  0  0  0  0  0  0  0  0
    4.0265   -5.9378    1.3134 F   0  0  0  0  0  0  0  0  0  0  0  0
    5.0381   -7.0188   -0.4039 F   0  0  0  0  0  0  0  0  0  0  0  0
    4.6201   -4.6319   -0.6612 C   0  0  0  0  0  0  0  0  0  0  0  0
    3.5994   -1.3383   -1.5489 C   0  0  0  0  0  0  0  0  0  0  0  0
    2.2228   -1.3069   -1.3669 C   0  0  0  0  0  0  0  0  0  0  0  0
   -0.2291   -2.2895   -0.8540 H   0  0  0  0  0  0  0  0  0  0  0  0
   -2.6451   -2.0582   -0.3812 H   0  0  0  0  0  0  0  0  0  0  0  0
   -3.4451    0.0535    0.6766 H   0  0  0  0  0  0  0  0  0  0  0  0
    2.2770    1.0530    1.0927 H   0  0  0  0  0  0  0  0  0  0  0  0
    6.6448   -0.2636   -0.7734 H   0  0  0  0  0  0  0  0  0  0  0  0
    6.6177   -2.1210   -2.6979 H   0  0  0  0  0  0  0  0  0  0  0  0
    4.8160   -3.5505   -3.8502 H   0  0  0  0  0  0  0  0  0  0  0  0
    3.3271   -2.6393   -4.0962 H   0  0  0  0  0  0  0  0  0  0  0  0
    2.0009   -5.8416   -0.2418 H   0  0  0  0  0  0  0  0  0  0  0  0
    2.8001   -6.7282   -1.5927 H   0  0  0  0  0  0  0  0  0  0  0  0
    4.6890   -3.8130    0.0625 H   0  0  0  0  0  0  0  0  0  0  0  0
    5.5205   -4.6837   -1.2808 H   0  0  0  0  0  0  0  0  0  0  0  0
    1.5835   -1.9336   -1.9818 H   0  0  0  0  0  0  0  0  0  0  0  0
  1  2  1  0
  2  3  1  0
  2  4  1  0
  2  5  1  0
  5  6  2  0
  5 10  1  0
  6  7  1  0
  7  8  2  0
  7 11  1  0
  8  9  1  0
  8 29  1  0
  9 10  2  0
  9 30  1  0
 10 31  1  0
 11 12  2  0
 11 28  1  0
 12 13  1  0
 12 32  1  0
 13 14  2  0
 14 15  1  0
 14 27  1  0
 15 16  2  0
 15 33  1  0
 16 17  1  0
 16 34  1  0
 17 18  1  0
 17 27  1  0
 18 19  1  0
 18 35  1  0
 18 36  1  0
 19 20  2  0
 19 21  1  0
 21 22  1  0
 21 26  1  0
 22 23  1  0
 22 37  1  0
 22 38  1  0
 23 24  1  0
 23 25  1  0
 23 26  1  0
 26 39  1  0
 26 40  1  0
 27 28  2  0
 28 41  1  0
M  END
>  <group_name>  (1) 
JNS

>  <molecule_index>  (1) 
02456

>  <conformer_index>  (1) 
03

>  <method>  (1) 
openff-1.3.0

>  <basis>  (1) 
smirnoff

>  <program>  (1) 
openmm

>  <initial_energy>  (1) 
142.05452776780672 kilocalorie / mole

>  <final_energy>  (1) 
129.7188559086453 kilocalorie / mole

$$$$
