JNS-02536-05
     RDKit          3D

 44 47  0  0  0  0  0  0  0  0999 V2000
   -6.7046   -4.0307   -1.4640 C   0  0  0  0  0  0  0  0  0  0  0  0
   -5.4563   -3.2530   -1.1374 C   0  0  0  0  0  0  0  0  0  0  0  0
   -4.9648   -3.2118    0.1715 C   0  0  0  0  0  0  0  0  0  0  0  0
   -3.8159   -2.4727    0.4773 C   0  0  0  0  0  0  0  0  0  0  0  0
   -3.1288   -1.7500   -0.5135 C   0  0  0  0  0  0  0  0  0  0  0  0
   -3.6420   -1.7877   -1.8237 C   0  0  0  0  0  0  0  0  0  0  0  0
   -4.7901   -2.5275   -2.1305 C   0  0  0  0  0  0  0  0  0  0  0  0
   -1.9765   -1.0009   -0.1910 N   0  0  0  0  0  0  0  0  0  0  0  0
   -0.9674   -0.6875   -1.1119 C   0  0  0  0  0  0  0  0  0  0  0  0
   -0.4692   -1.6732   -2.3700 S   0  0  0  0  0  0  0  0  0  0  0  0
   -0.3382    0.5026   -0.8019 N   0  0  0  0  0  0  0  0  0  0  0  0
   -0.8812    0.9434    0.3684 C   0  0  0  0  0  0  0  0  0  0  0  0
   -0.6790    2.0595    0.8442 O   0  0  0  0  0  0  0  0  0  0  0  0
   -1.9223   -0.0340    0.9251 C   0  0  0  0  0  0  0  0  0  0  0  0
   -3.1956    0.6214    1.4673 C   0  0  0  0  0  0  0  0  0  0  0  0
   -2.6646    0.3509    2.8787 C   0  0  0  0  0  0  0  0  0  0  0  0
   -1.5454   -0.5324    2.3182 C   0  0  0  0  0  0  0  0  0  0  0  0
    1.0237    0.6120   -0.9880 C   0  0  0  0  0  0  0  0  0  0  0  0
    1.8286    0.4358    0.0714 N   0  0  0  0  0  0  0  0  0  0  0  0
    3.1799    0.5311   -0.0827 C   0  0  0  0  0  0  0  0  0  0  0  0
    3.7411    0.8092   -1.3592 C   0  0  0  0  0  0  0  0  0  0  0  0
    2.8983    0.9824   -2.4564 C   0  0  0  0  0  0  0  0  0  0  0  0
    1.5285    0.8809   -2.2587 C   0  0  0  0  0  0  0  0  0  0  0  0
    5.1493    0.9174   -1.5677 C   0  0  0  0  0  0  0  0  0  0  0  0
    6.2939    1.0124   -1.7640 N   0  0  0  0  0  0  0  0  0  0  0  0
    4.0827    0.3282    1.1499 C   0  0  0  0  0  0  0  0  0  0  0  0
    4.8193    1.4515    1.3967 F   0  0  0  0  0  0  0  0  0  0  0  0
    4.9262   -0.7288    0.9586 F   0  0  0  0  0  0  0  0  0  0  0  0
    3.3640    0.0628    2.2827 F   0  0  0  0  0  0  0  0  0  0  0  0
   -6.4406   -5.0504   -1.7598 H   0  0  0  0  0  0  0  0  0  0  0  0
   -7.2490   -3.5552   -2.2856 H   0  0  0  0  0  0  0  0  0  0  0  0
   -7.3678   -4.0762   -0.5949 H   0  0  0  0  0  0  0  0  0  0  0  0
   -5.4712   -3.7624    0.9591 H   0  0  0  0  0  0  0  0  0  0  0  0
   -3.4601   -2.4797    1.4998 H   0  0  0  0  0  0  0  0  0  0  0  0
   -3.1670   -1.2315   -2.6251 H   0  0  0  0  0  0  0  0  0  0  0  0
   -5.1606   -2.5360   -3.1516 H   0  0  0  0  0  0  0  0  0  0  0  0
   -3.3170    1.6797    1.2128 H   0  0  0  0  0  0  0  0  0  0  0  0
   -4.1217    0.0818    1.2509 H   0  0  0  0  0  0  0  0  0  0  0  0
   -2.2919    1.2521    3.3781 H   0  0  0  0  0  0  0  0  0  0  0  0
   -3.3684   -0.1730    3.5335 H   0  0  0  0  0  0  0  0  0  0  0  0
   -1.7093   -1.6013    2.4778 H   0  0  0  0  0  0  0  0  0  0  0  0
   -0.5357   -0.2624    2.6484 H   0  0  0  0  0  0  0  0  0  0  0  0
    3.3017    1.1897   -3.4461 H   0  0  0  0  0  0  0  0  0  0  0  0
    0.8366    1.0016   -3.0855 H   0  0  0  0  0  0  0  0  0  0  0  0
  1  2  1  0
  1 30  1  0
  1 31  1  0
  1 32  1  0
  2  3  2  0
  2  7  1  0
  3  4  1  0
  3 33  1  0
  4  5  2  0
  4 34  1  0
  5  6  1  0
  5  8  1  0
  6  7  2  0
  6 35  1  0
  7 36  1  0
  8  9  1  0
  8 14  1  0
  9 10  2  0
  9 11  1  0
 11 12  1  0
 11 18  1  0
 12 13  2  0
 12 14  1  0
 14 15  1  0
 14 17  1  0
 15 16  1  0
 15 37  1  0
 15 38  1  0
 16 17  1  0
 16 39  1  0
 16 40  1  0
 17 41  1  0
 17 42  1  0
 18 19  2  0
 18 23  1  0
 19 20  1  0
 20 21  2  0
 20 26  1  0
 21 22  1  0
 21 24  1  0
 22 23  2  0
 22 43  1  0
 23 44  1  0
 24 25  3  0
 26 27  1  0
 26 28  1  0
 26 29  1  0
M  END
>  <group_name>  (1) 
JNS

>  <molecule_index>  (1) 
02536

>  <conformer_index>  (1) 
05

>  <method>  (1) 
openff-1.3.0

>  <basis>  (1) 
smirnoff

>  <program>  (1) 
openmm

>  <initial_energy>  (1) 
74.72469054564414 kilocalorie / mole

>  <final_energy>  (1) 
59.295259633472654 kilocalorie / mole

$$$$
