JNS-01658-02
     RDKit          3D

 38 41  0  0  0  0  0  0  0  0999 V2000
   -0.2373   -2.2476    1.7240 C   0  0  0  0  0  0  0  0  0  0  0  0
   -0.6823   -0.9309    1.1518 C   0  0  0  0  0  0  0  0  0  0  0  0
   -1.9440   -0.5815    1.2252 N   0  0  0  0  0  0  0  0  0  0  0  0
   -2.0222    0.6046    0.5139 C   0  0  0  0  0  0  0  0  0  0  0  0
   -0.7927    0.9742    0.0011 C   0  0  0  0  0  0  0  0  0  0  0  0
   -0.5904    2.0900   -0.7282 N   0  0  0  0  0  0  0  0  0  0  0  0
   -1.6696    2.8864   -0.9729 C   0  0  0  0  0  0  0  0  0  0  0  0
   -2.9497    2.5456   -0.4718 C   0  0  0  0  0  0  0  0  0  0  0  0
   -3.1379    1.3883    0.2852 C   0  0  0  0  0  0  0  0  0  0  0  0
   -1.5249    4.1679   -1.8040 C   0  0  0  0  0  0  0  0  0  0  0  0
   -1.8462    5.2523   -1.0387 F   0  0  0  0  0  0  0  0  0  0  0  0
   -0.2609    4.3467   -2.2923 F   0  0  0  0  0  0  0  0  0  0  0  0
   -2.3843    4.1296   -2.8652 F   0  0  0  0  0  0  0  0  0  0  0  0
    0.0875   -0.0012    0.4340 N   0  0  0  0  0  0  0  0  0  0  0  0
    1.4866    0.0088    0.2588 C   0  0  0  0  0  0  0  0  0  0  0  0
    2.3520   -0.4387    1.2769 C   0  0  0  0  0  0  0  0  0  0  0  0
    3.7331   -0.4178    1.0748 C   0  0  0  0  0  0  0  0  0  0  0  0
    4.2711    0.0525   -0.1112 C   0  0  0  0  0  0  0  0  0  0  0  0
    5.6501   -0.0219   -0.0508 N   0  0  0  0  0  0  0  0  0  0  0  0
    6.0136   -0.4274    1.2000 C   0  0  0  0  0  0  0  0  0  0  0  0
    7.1643   -0.3206    1.6010 O   0  0  0  0  0  0  0  0  0  0  0  0
    4.8107   -0.8157    2.0499 C   0  0  0  0  0  0  0  0  0  0  0  0
    3.4484    0.5314   -1.1335 C   0  0  0  0  0  0  0  0  0  0  0  0
    4.0343    1.0470   -2.4244 C   0  0  0  0  0  0  0  0  0  0  0  0
    2.0566    0.4996   -0.9367 C   0  0  0  0  0  0  0  0  0  0  0  0
   -1.0017   -3.0062    1.5335 H   0  0  0  0  0  0  0  0  0  0  0  0
   -0.1086   -2.1534    2.8052 H   0  0  0  0  0  0  0  0  0  0  0  0
    0.6986   -2.5789    1.2682 H   0  0  0  0  0  0  0  0  0  0  0  0
   -3.7951    3.1949   -0.6796 H   0  0  0  0  0  0  0  0  0  0  0  0
   -4.1057    1.0989    0.6849 H   0  0  0  0  0  0  0  0  0  0  0  0
    1.9686   -0.7725    2.2353 H   0  0  0  0  0  0  0  0  0  0  0  0
    6.2562    0.6246   -0.5432 H   0  0  0  0  0  0  0  0  0  0  0  0
    4.7752   -0.2290    2.9708 H   0  0  0  0  0  0  0  0  0  0  0  0
    4.8058   -1.8889    2.2523 H   0  0  0  0  0  0  0  0  0  0  0  0
    3.2529    1.1987   -3.1752 H   0  0  0  0  0  0  0  0  0  0  0  0
    4.7588    0.3306   -2.8235 H   0  0  0  0  0  0  0  0  0  0  0  0
    4.5379    2.0025   -2.2501 H   0  0  0  0  0  0  0  0  0  0  0  0
    1.4109    0.8570   -1.7334 H   0  0  0  0  0  0  0  0  0  0  0  0
  1  2  1  0
  1 26  1  0
  1 27  1  0
  1 28  1  0
  2  3  2  0
  2 14  1  0
  3  4  1  0
  4  5  2  0
  4  9  1  0
  5  6  1  0
  5 14  1  0
  6  7  2  0
  7  8  1  0
  7 10  1  0
  8  9  2  0
  8 29  1  0
  9 30  1  0
 10 11  1  0
 10 12  1  0
 10 13  1  0
 14 15  1  0
 15 16  2  0
 15 25  1  0
 16 17  1  0
 16 31  1  0
 17 18  2  0
 17 22  1  0
 18 19  1  0
 18 23  1  0
 19 20  1  0
 19 32  1  0
 20 21  2  0
 20 22  1  0
 22 33  1  0
 22 34  1  0
 23 24  1  0
 23 25  2  0
 24 35  1  0
 24 36  1  0
 24 37  1  0
 25 38  1  0
M  END
>  <group_name>  (1) 
JNS

>  <molecule_index>  (1) 
01658

>  <conformer_index>  (1) 
02

>  <method>  (1) 
openff-1.3.0

>  <basis>  (1) 
smirnoff

>  <program>  (1) 
openmm

>  <initial_energy>  (1) 
83.0534761584207 kilocalorie / mole

>  <final_energy>  (1) 
71.27623212856147 kilocalorie / mole

$$$$
