JNS-01380-08
     RDKit          3D

 34 37  0  0  0  0  0  0  0  0999 V2000
   -0.5499    1.4677   -0.1477 C   0  0  0  0  0  0  0  0  0  0  0  0
   -0.0570    0.1161   -0.1356 O   0  0  0  0  0  0  0  0  0  0  0  0
    1.3178   -0.0143   -0.0995 C   0  0  0  0  0  0  0  0  0  0  0  0
    2.1405    1.0118   -0.0819 N   0  0  0  0  0  0  0  0  0  0  0  0
    3.4002    0.4485   -0.0032 C   0  0  0  0  0  0  0  0  0  0  0  0
    3.3429   -0.9326    0.0310 C   0  0  0  0  0  0  0  0  0  0  0  0
    4.4380   -1.7184    0.0888 N   0  0  0  0  0  0  0  0  0  0  0  0
    5.6565   -1.1073    0.1282 C   0  0  0  0  0  0  0  0  0  0  0  0
    5.7591    0.3046    0.1039 C   0  0  0  0  0  0  0  0  0  0  0  0
    4.6172    1.1034    0.0354 C   0  0  0  0  0  0  0  0  0  0  0  0
    6.9464   -1.9336    0.2070 C   0  0  0  0  0  0  0  0  0  0  0  0
    7.7090   -1.7019   -0.9019 F   0  0  0  0  0  0  0  0  0  0  0  0
    7.6687   -1.5567    1.3033 F   0  0  0  0  0  0  0  0  0  0  0  0
    6.7140   -3.2773    0.2958 F   0  0  0  0  0  0  0  0  0  0  0  0
    1.9958   -1.2412   -0.0421 N   0  0  0  0  0  0  0  0  0  0  0  0
    1.4232   -2.5336   -0.0628 C   0  0  0  0  0  0  0  0  0  0  0  0
    0.1972   -2.7821   -0.7205 C   0  0  0  0  0  0  0  0  0  0  0  0
   -0.3507   -4.0677   -0.7254 C   0  0  0  0  0  0  0  0  0  0  0  0
    0.2915   -5.1174   -0.0961 C   0  0  0  0  0  0  0  0  0  0  0  0
   -0.3377   -6.3534   -0.1629 N   0  0  0  0  0  0  0  0  0  0  0  0
   -1.4403   -6.2215   -0.8430 C   0  0  0  0  0  0  0  0  0  0  0  0
   -2.1691   -7.3471   -0.9960 O   0  0  0  0  0  0  0  0  0  0  0  0
   -1.8341   -4.6134   -1.4659 S   0  0  0  0  0  0  0  0  0  0  0  0
    1.5015   -4.9102    0.5550 C   0  0  0  0  0  0  0  0  0  0  0  0
    2.0633   -3.6246    0.5713 C   0  0  0  0  0  0  0  0  0  0  0  0
   -1.6435    1.4632   -0.1737 H   0  0  0  0  0  0  0  0  0  0  0  0
   -0.2280    2.0033    0.7516 H   0  0  0  0  0  0  0  0  0  0  0  0
   -0.1848    2.0038   -1.0300 H   0  0  0  0  0  0  0  0  0  0  0  0
    6.7400    0.7698    0.1365 H   0  0  0  0  0  0  0  0  0  0  0  0
    4.6604    2.1885    0.0103 H   0  0  0  0  0  0  0  0  0  0  0  0
   -0.3351   -2.0013   -1.2519 H   0  0  0  0  0  0  0  0  0  0  0  0
   -1.6552   -8.0261   -0.5328 H   0  0  0  0  0  0  0  0  0  0  0  0
    1.9951   -5.7444    1.0431 H   0  0  0  0  0  0  0  0  0  0  0  0
    3.0010   -3.4926    1.1013 H   0  0  0  0  0  0  0  0  0  0  0  0
  1  2  1  0
  1 26  1  0
  1 27  1  0
  1 28  1  0
  2  3  1  0
  3  4  2  0
  3 15  1  0
  4  5  1  0
  5  6  2  0
  5 10  1  0
  6  7  1  0
  6 15  1  0
  7  8  2  0
  8  9  1  0
  8 11  1  0
  9 10  2  0
  9 29  1  0
 10 30  1  0
 11 12  1  0
 11 13  1  0
 11 14  1  0
 15 16  1  0
 16 17  2  0
 16 25  1  0
 17 18  1  0
 17 31  1  0
 18 19  2  0
 18 23  1  0
 19 20  1  0
 19 24  1  0
 20 21  2  0
 21 22  1  0
 21 23  1  0
 22 32  1  0
 24 25  2  0
 24 33  1  0
 25 34  1  0
M  END
>  <group_name>  (1) 
JNS

>  <molecule_index>  (1) 
01380

>  <conformer_index>  (1) 
08

>  <method>  (1) 
openff-1.3.0

>  <basis>  (1) 
smirnoff

>  <program>  (1) 
openmm

>  <initial_energy>  (1) 
80.7052300342879 kilocalorie / mole

>  <final_energy>  (1) 
69.21386754562238 kilocalorie / mole

$$$$
