JNS-01754-01
     RDKit          3D

 31 33  0  0  0  0  0  0  0  0999 V2000
   -4.8648   -0.1044   -1.1724 F   0  0  0  0  0  0  0  0  0  0  0  0
   -4.3946   -0.3538    0.0856 C   0  0  0  0  0  0  0  0  0  0  0  0
   -5.0651    0.4546    0.9590 F   0  0  0  0  0  0  0  0  0  0  0  0
   -4.6873   -1.6519    0.3936 F   0  0  0  0  0  0  0  0  0  0  0  0
   -2.8757   -0.1474    0.1170 C   0  0  0  0  0  0  0  0  0  0  0  0
   -2.0762   -0.9171   -0.7498 C   0  0  0  0  0  0  0  0  0  0  0  0
   -0.6905   -0.7736   -0.7653 C   0  0  0  0  0  0  0  0  0  0  0  0
   -0.0992    0.1424    0.1002 C   0  0  0  0  0  0  0  0  0  0  0  0
    1.3052    0.2566    0.0402 N   0  0  0  0  0  0  0  0  0  0  0  0
    2.1519    0.8554    0.9686 C   0  0  0  0  0  0  0  0  0  0  0  0
    1.7659    1.3323    2.1157 N   0  0  0  0  0  0  0  0  0  0  0  0
    2.8322    1.8436    2.8459 C   0  0  0  0  0  0  0  0  0  0  0  0
    4.0498    1.7289    2.2175 C   0  0  0  0  0  0  0  0  0  0  0  0
    3.8823    0.9624    0.6586 S   0  0  0  0  0  0  0  0  0  0  0  0
    2.6311    2.4414    4.1683 C   0  0  0  0  0  0  0  0  0  0  0  0
    3.6850    2.9936    4.9082 C   0  0  0  0  0  0  0  0  0  0  0  0
    3.3936    3.5374    6.1538 C   0  0  0  0  0  0  0  0  0  0  0  0
    2.0824    3.5220    6.6318 C   0  0  0  0  0  0  0  0  0  0  0  0
    1.0604    2.9976    5.9372 N   0  0  0  0  0  0  0  0  0  0  0  0
    1.3401    2.4697    4.7279 C   0  0  0  0  0  0  0  0  0  0  0  0
   -0.9628    0.8960    0.9412 C   0  0  0  0  0  0  0  0  0  0  0  0
   -2.3077    0.7594    0.9538 N   0  0  0  0  0  0  0  0  0  0  0  0
   -2.5518   -1.6332   -1.4141 H   0  0  0  0  0  0  0  0  0  0  0  0
   -0.0899   -1.3767   -1.4395 H   0  0  0  0  0  0  0  0  0  0  0  0
    1.7785   -0.2348   -0.7107 H   0  0  0  0  0  0  0  0  0  0  0  0
    4.9945    2.0643    2.6250 H   0  0  0  0  0  0  0  0  0  0  0  0
    4.7090    3.0137    4.5477 H   0  0  0  0  0  0  0  0  0  0  0  0
    4.1757    3.9770    6.7638 H   0  0  0  0  0  0  0  0  0  0  0  0
    1.8783    3.9526    7.6077 H   0  0  0  0  0  0  0  0  0  0  0  0
    0.5032    2.0491    4.1781 H   0  0  0  0  0  0  0  0  0  0  0  0
   -0.5680    1.6544    1.6056 H   0  0  0  0  0  0  0  0  0  0  0  0
  1  2  1  0
  2  3  1  0
  2  4  1  0
  2  5  1  0
  5  6  2  0
  5 22  1  0
  6  7  1  0
  6 23  1  0
  7  8  2  0
  7 24  1  0
  8  9  1  0
  8 21  1  0
  9 10  1  0
  9 25  1  0
 10 11  2  0
 10 14  1  0
 11 12  1  0
 12 13  2  0
 12 15  1  0
 13 14  1  0
 13 26  1  0
 15 16  2  0
 15 20  1  0
 16 17  1  0
 16 27  1  0
 17 18  2  0
 17 28  1  0
 18 19  1  0
 18 29  1  0
 19 20  2  0
 20 30  1  0
 21 22  2  0
 21 31  1  0
M  END
>  <group_name>  (1) 
JNS

>  <molecule_index>  (1) 
01754

>  <conformer_index>  (1) 
01

>  <method>  (1) 
openff-1.3.0

>  <basis>  (1) 
smirnoff

>  <program>  (1) 
openmm

>  <initial_energy>  (1) 
65.80047917338213 kilocalorie / mole

>  <final_energy>  (1) 
60.79707244574908 kilocalorie / mole

$$$$
