JNS-01754-05
     RDKit          3D

 31 33  0  0  0  0  0  0  0  0999 V2000
   -3.6006   -2.4404   -2.5392 F   0  0  0  0  0  0  0  0  0  0  0  0
   -4.0602   -1.4768   -1.6875 C   0  0  0  0  0  0  0  0  0  0  0  0
   -5.0166   -2.0346   -0.8875 F   0  0  0  0  0  0  0  0  0  0  0  0
   -4.6479   -0.4970   -2.4357 F   0  0  0  0  0  0  0  0  0  0  0  0
   -2.8869   -0.8857   -0.8969 C   0  0  0  0  0  0  0  0  0  0  0  0
   -1.8309   -0.2849   -1.6103 C   0  0  0  0  0  0  0  0  0  0  0  0
   -0.7415    0.2736   -0.9443 C   0  0  0  0  0  0  0  0  0  0  0  0
   -0.7152    0.2358    0.4460 C   0  0  0  0  0  0  0  0  0  0  0  0
    0.4015    0.8061    1.0828 N   0  0  0  0  0  0  0  0  0  0  0  0
    0.5247    1.2249    2.3938 C   0  0  0  0  0  0  0  0  0  0  0  0
    1.7060    1.6885    2.6673 N   0  0  0  0  0  0  0  0  0  0  0  0
    1.7831    2.1186    3.9889 C   0  0  0  0  0  0  0  0  0  0  0  0
    0.6141    1.9728    4.7006 C   0  0  0  0  0  0  0  0  0  0  0  0
   -0.6445    1.2738    3.7130 S   0  0  0  0  0  0  0  0  0  0  0  0
    3.0238    2.6754    4.5352 C   0  0  0  0  0  0  0  0  0  0  0  0
    3.1230    3.1290    5.8570 C   0  0  0  0  0  0  0  0  0  0  0  0
    4.3438    3.6410    6.2813 C   0  0  0  0  0  0  0  0  0  0  0  0
    5.4239    3.6917    5.3987 C   0  0  0  0  0  0  0  0  0  0  0  0
    5.3473    3.2619    4.1289 N   0  0  0  0  0  0  0  0  0  0  0  0
    4.1639    2.7644    3.7157 C   0  0  0  0  0  0  0  0  0  0  0  0
   -1.7981   -0.4010    1.1017 C   0  0  0  0  0  0  0  0  0  0  0  0
   -2.8564   -0.9411    0.4612 N   0  0  0  0  0  0  0  0  0  0  0  0
   -1.8708   -0.2567   -2.6958 H   0  0  0  0  0  0  0  0  0  0  0  0
    0.0650    0.7363   -1.5061 H   0  0  0  0  0  0  0  0  0  0  0  0
    1.2076    1.0722    0.5242 H   0  0  0  0  0  0  0  0  0  0  0  0
    0.4780    2.2495    5.7380 H   0  0  0  0  0  0  0  0  0  0  0  0
    2.2911    3.0962    6.5541 H   0  0  0  0  0  0  0  0  0  0  0  0
    4.4697    4.0044    7.2957 H   0  0  0  0  0  0  0  0  0  0  0  0
    6.3676    4.0960    5.7527 H   0  0  0  0  0  0  0  0  0  0  0  0
    4.1175    2.4202    2.6869 H   0  0  0  0  0  0  0  0  0  0  0  0
   -1.7968   -0.5020    2.1792 H   0  0  0  0  0  0  0  0  0  0  0  0
  1  2  1  0
  2  3  1  0
  2  4  1  0
  2  5  1  0
  5  6  2  0
  5 22  1  0
  6  7  1  0
  6 23  1  0
  7  8  2  0
  7 24  1  0
  8  9  1  0
  8 21  1  0
  9 10  1  0
  9 25  1  0
 10 11  2  0
 10 14  1  0
 11 12  1  0
 12 13  2  0
 12 15  1  0
 13 14  1  0
 13 26  1  0
 15 16  2  0
 15 20  1  0
 16 17  1  0
 16 27  1  0
 17 18  2  0
 17 28  1  0
 18 19  1  0
 18 29  1  0
 19 20  2  0
 20 30  1  0
 21 22  2  0
 21 31  1  0
M  END
>  <group_name>  (1) 
JNS

>  <molecule_index>  (1) 
01754

>  <conformer_index>  (1) 
05

>  <method>  (1) 
openff-1.3.0

>  <basis>  (1) 
smirnoff

>  <program>  (1) 
openmm

>  <initial_energy>  (1) 
64.91025915129362 kilocalorie / mole

>  <final_energy>  (1) 
59.212027215744286 kilocalorie / mole

$$$$
