JNS-02240-04
     RDKit          3D

 51 55  0  0  0  0  0  0  0  0999 V2000
    1.0394    5.9204    3.9930 C   0  0  0  0  0  0  0  0  0  0  0  0
    0.1994    4.8297    3.4079 C   0  0  0  0  0  0  0  0  0  0  0  0
   -0.9813    4.5800    3.9795 N   0  0  0  0  0  0  0  0  0  0  0  0
   -1.7602    3.6086    3.4759 C   0  0  0  0  0  0  0  0  0  0  0  0
   -3.0373    3.3238    4.1917 C   0  0  0  0  0  0  0  0  0  0  0  0
   -3.5484    2.0611    4.2664 N   0  0  0  0  0  0  0  0  0  0  0  0
   -4.6920    1.9366    4.9715 C   0  0  0  0  0  0  0  0  0  0  0  0
   -5.3284    3.0291    5.5937 C   0  0  0  0  0  0  0  0  0  0  0  0
   -4.8431    4.2846    5.5368 N   0  0  0  0  0  0  0  0  0  0  0  0
   -3.6914    4.4079    4.8382 C   0  0  0  0  0  0  0  0  0  0  0  0
   -1.3414    2.9144    2.3252 C   0  0  0  0  0  0  0  0  0  0  0  0
   -2.2021    1.8425    1.6457 C   0  0  0  0  0  0  0  0  0  0  0  0
   -1.7642    1.5860    0.1962 C   0  0  1  0  0  0  0  0  0  0  0  0
   -2.0928    2.8187   -0.6898 C   0  0  0  0  0  0  0  0  0  0  0  0
   -0.9056    3.2518   -1.5605 C   0  0  0  0  0  0  0  0  0  0  0  0
    0.3831    3.4446   -0.7311 C   0  0  0  0  0  0  0  0  0  0  0  0
    0.4554    2.5557    0.5332 C   0  0  2  0  0  0  0  0  0  0  0  0
   -0.3237    1.3429    0.2721 N   0  0  0  0  0  0  0  0  0  0  0  0
    0.1775    0.0636    0.4797 C   0  0  0  0  0  0  0  0  0  0  0  0
   -0.5997   -0.8861    0.5370 O   0  0  0  0  0  0  0  0  0  0  0  0
    1.5970   -0.1930    0.7568 C   0  0  0  0  0  0  0  0  0  0  0  0
    1.9843   -0.6614    2.0119 C   0  0  0  0  0  0  0  0  0  0  0  0
    3.3266   -0.8949    2.2879 C   0  0  0  0  0  0  0  0  0  0  0  0
    4.2987   -0.6903    1.3850 N   0  0  0  0  0  0  0  0  0  0  0  0
    3.9597   -0.2580    0.1363 C   0  0  0  0  0  0  0  0  0  0  0  0
    2.6010   -0.0082   -0.2082 C   0  0  0  0  0  0  0  0  0  0  0  0
    2.1440    0.4853   -1.8300 Cl  0  0  0  0  0  0  0  0  0  0  0  0
    5.0710   -0.0379   -0.9033 C   0  0  0  0  0  0  0  0  0  0  0  0
    6.3162   -0.2870   -0.3979 F   0  0  0  0  0  0  0  0  0  0  0  0
    5.0698    1.2583   -1.3355 F   0  0  0  0  0  0  0  0  0  0  0  0
    4.8999   -0.8675   -1.9746 F   0  0  0  0  0  0  0  0  0  0  0  0
   -0.0997    3.2660    1.7683 C   0  0  0  0  0  0  0  0  0  0  0  0
    0.6634    4.2075    2.3247 N   0  0  0  0  0  0  0  0  0  0  0  0
    1.7552    5.4904    4.6976 H   0  0  0  0  0  0  0  0  0  0  0  0
    0.4100    6.6431    4.5192 H   0  0  0  0  0  0  0  0  0  0  0  0
    1.5851    6.4403    3.2012 H   0  0  0  0  0  0  0  0  0  0  0  0
   -5.1429    0.9533    5.0631 H   0  0  0  0  0  0  0  0  0  0  0  0
   -6.2483    2.8501    6.1418 H   0  0  0  0  0  0  0  0  0  0  0  0
   -3.2640    5.4038    4.7695 H   0  0  0  0  0  0  0  0  0  0  0  0
   -3.2570    2.1345    1.6449 H   0  0  0  0  0  0  0  0  0  0  0  0
   -2.1205    0.9086    2.2126 H   0  0  0  0  0  0  0  0  0  0  0  0
   -2.2885    0.7129   -0.2106 H   0  0  0  0  0  0  0  0  0  0  0  0
   -2.9536    2.5878   -1.3249 H   0  0  0  0  0  0  0  0  0  0  0  0
   -2.3820    3.6735   -0.0697 H   0  0  0  0  0  0  0  0  0  0  0  0
   -1.1456    4.1737   -2.0995 H   0  0  0  0  0  0  0  0  0  0  0  0
   -0.7276    2.4726   -2.3096 H   0  0  0  0  0  0  0  0  0  0  0  0
    1.2326    3.2117   -1.3795 H   0  0  0  0  0  0  0  0  0  0  0  0
    0.4931    4.4956   -0.4445 H   0  0  0  0  0  0  0  0  0  0  0  0
    1.5061    2.3355    0.7398 H   0  0  0  0  0  0  0  0  0  0  0  0
    1.2404   -0.8464    2.7816 H   0  0  0  0  0  0  0  0  0  0  0  0
    3.6023   -1.2541    3.2752 H   0  0  0  0  0  0  0  0  0  0  0  0
  1  2  1  0
  1 34  1  0
  1 35  1  0
  1 36  1  0
  2  3  2  0
  2 33  1  0
  3  4  1  0
  4  5  1  0
  4 11  2  0
  5  6  2  0
  5 10  1  0
  6  7  1  0
  7  8  2  0
  7 37  1  0
  8  9  1  0
  8 38  1  0
  9 10  2  0
 10 39  1  0
 11 12  1  0
 11 32  1  0
 12 13  1  0
 12 40  1  0
 12 41  1  0
 13 14  1  0
 13 18  1  0
 13 42  1  6
 14 15  1  0
 14 43  1  0
 14 44  1  0
 15 16  1  0
 15 45  1  0
 15 46  1  0
 16 17  1  0
 16 47  1  0
 16 48  1  0
 17 18  1  0
 17 32  1  0
 17 49  1  1
 18 19  1  0
 19 20  2  0
 19 21  1  0
 21 22  2  0
 21 26  1  0
 22 23  1  0
 22 50  1  0
 23 24  2  0
 23 51  1  0
 24 25  1  0
 25 26  2  0
 25 28  1  0
 26 27  1  0
 28 29  1  0
 28 30  1  0
 28 31  1  0
 32 33  2  0
M  END
>  <group_name>  (1) 
JNS

>  <molecule_index>  (1) 
02240

>  <conformer_index>  (1) 
04

>  <method>  (1) 
openff-1.3.0

>  <basis>  (1) 
smirnoff

>  <program>  (1) 
openmm

>  <initial_energy>  (1) 
139.90068202822414 kilocalorie / mole

>  <final_energy>  (1) 
129.6610752824989 kilocalorie / mole

$$$$
