JNS-02157-07
     RDKit          3D

 42 45  0  0  0  0  0  0  0  0999 V2000
   -1.9029    3.1650   -1.7299 C   0  0  0  0  0  0  0  0  0  0  0  0
   -1.8056    2.2768   -0.4829 C   0  0  2  0  0  0  0  0  0  0  0  0
   -1.9301    3.0983    0.8122 C   0  0  0  0  0  0  0  0  0  0  0  0
   -1.8710    2.1702    2.0154 C   0  0  0  0  0  0  0  0  0  0  0  0
   -1.3894    0.8977    1.9091 C   0  0  0  0  0  0  0  0  0  0  0  0
   -0.8327    0.3137    0.6313 C   0  0  0  0  0  0  0  0  0  0  0  0
   -0.6212    1.4077   -0.3322 N   0  0  0  0  0  0  0  0  0  0  0  0
    0.6748    1.7862   -0.6921 C   0  0  0  0  0  0  0  0  0  0  0  0
    0.8843    2.7645   -1.4003 O   0  0  0  0  0  0  0  0  0  0  0  0
    1.8538    1.0076   -0.2927 C   0  0  0  0  0  0  0  0  0  0  0  0
    2.4411    0.1126   -1.1860 C   0  0  0  0  0  0  0  0  0  0  0  0
    3.5619   -0.6178   -0.8054 C   0  0  0  0  0  0  0  0  0  0  0  0
    4.1241   -0.5051    0.4082 N   0  0  0  0  0  0  0  0  0  0  0  0
    3.5907    0.3744    1.3053 C   0  0  0  0  0  0  0  0  0  0  0  0
    2.4466    1.1528    0.9723 C   0  0  0  0  0  0  0  0  0  0  0  0
    1.7635    2.3119    2.1014 Cl  0  0  0  0  0  0  0  0  0  0  0  0
    4.2450    0.5173    2.6894 C   0  0  0  0  0  0  0  0  0  0  0  0
    4.6920    1.7937    2.8806 F   0  0  0  0  0  0  0  0  0  0  0  0
    3.3546    0.2004    3.6751 F   0  0  0  0  0  0  0  0  0  0  0  0
    5.3221   -0.3101    2.8442 F   0  0  0  0  0  0  0  0  0  0  0  0
   -1.4509    0.2576    3.1283 N   0  0  0  0  0  0  0  0  0  0  0  0
   -1.9756    1.0989    3.9831 N   0  0  0  0  0  0  0  0  0  0  0  0
   -2.2448    2.2787    3.3501 N   0  0  0  0  0  0  0  0  0  0  0  0
   -2.7648    3.4225    4.0009 C   0  0  0  0  0  0  0  0  0  0  0  0
   -3.0757    3.3293    5.3119 N   0  0  0  0  0  0  0  0  0  0  0  0
   -3.5553    4.4104    5.9314 C   0  0  0  0  0  0  0  0  0  0  0  0
   -3.7407    5.6063    5.2670 C   0  0  0  0  0  0  0  0  0  0  0  0
   -4.2295    6.7036    5.9019 F   0  0  0  0  0  0  0  0  0  0  0  0
   -3.4080    5.6366    3.9277 C   0  0  0  0  0  0  0  0  0  0  0  0
   -2.9278    4.5625    3.2928 N   0  0  0  0  0  0  0  0  0  0  0  0
   -1.7050    2.5752   -2.6299 H   0  0  0  0  0  0  0  0  0  0  0  0
   -1.1987    4.0007   -1.6855 H   0  0  0  0  0  0  0  0  0  0  0  0
   -2.9090    3.5875   -1.8075 H   0  0  0  0  0  0  0  0  0  0  0  0
   -2.6766    1.6139   -0.5390 H   0  0  0  0  0  0  0  0  0  0  0  0
   -2.8750    3.6493    0.8047 H   0  0  0  0  0  0  0  0  0  0  0  0
   -1.1117    3.8229    0.8763 H   0  0  0  0  0  0  0  0  0  0  0  0
   -1.5475   -0.4068    0.2225 H   0  0  0  0  0  0  0  0  0  0  0  0
    0.0778   -0.2438    0.8642 H   0  0  0  0  0  0  0  0  0  0  0  0
    2.0352   -0.0155   -2.1849 H   0  0  0  0  0  0  0  0  0  0  0  0
    4.0014   -1.3099   -1.5179 H   0  0  0  0  0  0  0  0  0  0  0  0
   -3.8061    4.3459    6.9865 H   0  0  0  0  0  0  0  0  0  0  0  0
   -3.5413    6.5609    3.3725 H   0  0  0  0  0  0  0  0  0  0  0  0
  1  2  1  0
  1 31  1  0
  1 32  1  0
  1 33  1  0
  2  3  1  0
  2  7  1  0
  2 34  1  6
  3  4  1  0
  3 35  1  0
  3 36  1  0
  4  5  2  0
  4 23  1  0
  5  6  1  0
  5 21  1  0
  6  7  1  0
  6 37  1  0
  6 38  1  0
  7  8  1  0
  8  9  2  0
  8 10  1  0
 10 11  2  0
 10 15  1  0
 11 12  1  0
 11 39  1  0
 12 13  2  0
 12 40  1  0
 13 14  1  0
 14 15  2  0
 14 17  1  0
 15 16  1  0
 17 18  1  0
 17 19  1  0
 17 20  1  0
 21 22  2  0
 22 23  1  0
 23 24  1  0
 24 25  2  0
 24 30  1  0
 25 26  1  0
 26 27  2  0
 26 41  1  0
 27 28  1  0
 27 29  1  0
 29 30  2  0
 29 42  1  0
M  END
>  <group_name>  (1) 
JNS

>  <molecule_index>  (1) 
02157

>  <conformer_index>  (1) 
07

>  <method>  (1) 
openff-1.3.0

>  <basis>  (1) 
smirnoff

>  <program>  (1) 
openmm

>  <initial_energy>  (1) 
93.98284060149408 kilocalorie / mole

>  <final_energy>  (1) 
84.3510863177694 kilocalorie / mole

$$$$
