JNS-01586-02
     RDKit          3D

 40 44  0  0  0  0  0  0  0  0999 V2000
   -0.4019    0.6432    0.1266 F   0  0  0  0  0  0  0  0  0  0  0  0
    0.1368   -0.6104    0.1987 C   0  0  0  0  0  0  0  0  0  0  0  0
   -0.3517   -1.2133    1.3241 F   0  0  0  0  0  0  0  0  0  0  0  0
   -0.2979   -1.3176   -0.8862 F   0  0  0  0  0  0  0  0  0  0  0  0
    1.6664   -0.5193    0.1814 C   0  0  0  0  0  0  0  0  0  0  0  0
    2.4041   -1.0388    1.2028 N   0  0  0  0  0  0  0  0  0  0  0  0
    3.7438   -0.9142    1.1310 C   0  0  0  0  0  0  0  0  0  0  0  0
    4.7137   -1.3625    1.9879 C   0  0  0  0  0  0  0  0  0  0  0  0
    5.9210   -0.9380    1.4112 N   0  0  0  0  0  0  0  0  0  0  0  0
    5.6975   -0.3281    0.2111 N   0  0  0  0  0  0  0  0  0  0  0  0
    4.3999   -0.3051    0.0751 C   0  0  0  0  0  0  0  0  0  0  0  0
    3.6812    0.2302   -0.9802 C   0  0  0  0  0  0  0  0  0  0  0  0
    2.2930    0.1189   -0.9157 C   0  0  0  0  0  0  0  0  0  0  0  0
    7.1984   -0.9483    2.0093 C   0  0  0  0  0  0  0  0  0  0  0  0
    7.3734   -0.9011    3.4080 C   0  0  0  0  0  0  0  0  0  0  0  0
    8.6536   -0.9049    3.9742 C   0  0  0  0  0  0  0  0  0  0  0  0
    9.7834   -0.9415    3.1537 C   0  0  0  0  0  0  0  0  0  0  0  0
    9.6317   -0.9648    1.7653 C   0  0  0  0  0  0  0  0  0  0  0  0
    8.3513   -0.9619    1.1995 C   0  0  0  0  0  0  0  0  0  0  0  0
    4.4881   -2.1876    3.1888 C   0  0  0  0  0  0  0  0  0  0  0  0
    5.3460   -3.2668    3.4907 C   0  0  0  0  0  0  0  0  0  0  0  0
    5.1374   -4.0529    4.6339 C   0  0  0  0  0  0  0  0  0  0  0  0
    4.0589   -3.7587    5.4686 C   0  0  0  0  0  0  0  0  0  0  0  0
    3.5757   -4.3196    6.6392 N   0  0  0  0  0  0  0  0  0  0  0  0
    2.4604   -3.6739    7.0884 N   0  0  0  0  0  0  0  0  0  0  0  0
    2.2158   -2.7147    6.2251 C   0  0  0  0  0  0  0  0  0  0  0  0
    3.2104   -2.7241    5.1762 C   0  0  0  0  0  0  0  0  0  0  0  0
    3.3994   -1.9292    4.0422 C   0  0  0  0  0  0  0  0  0  0  0  0
    4.1841    0.7102   -1.8153 H   0  0  0  0  0  0  0  0  0  0  0  0
    1.6837    0.5238   -1.7174 H   0  0  0  0  0  0  0  0  0  0  0  0
    6.5191   -0.8361    4.0757 H   0  0  0  0  0  0  0  0  0  0  0  0
    8.7681   -0.8690    5.0544 H   0  0  0  0  0  0  0  0  0  0  0  0
   10.7772   -0.9414    3.5936 H   0  0  0  0  0  0  0  0  0  0  0  0
   10.5083   -0.9822    1.1232 H   0  0  0  0  0  0  0  0  0  0  0  0
    8.2552   -0.9780    0.1167 H   0  0  0  0  0  0  0  0  0  0  0  0
    6.1754   -3.5025    2.8298 H   0  0  0  0  0  0  0  0  0  0  0  0
    5.8012   -4.8815    4.8600 H   0  0  0  0  0  0  0  0  0  0  0  0
    3.9949   -5.1283    7.0984 H   0  0  0  0  0  0  0  0  0  0  0  0
    1.3880   -2.0148    6.2908 H   0  0  0  0  0  0  0  0  0  0  0  0
    2.7086   -1.1179    3.8277 H   0  0  0  0  0  0  0  0  0  0  0  0
  1  2  1  0
  2  3  1  0
  2  4  1  0
  2  5  1  0
  5  6  2  0
  5 13  1  0
  6  7  1  0
  7  8  2  0
  7 11  1  0
  8  9  1  0
  8 20  1  0
  9 10  1  0
  9 14  1  0
 10 11  2  0
 11 12  1  0
 12 13  2  0
 12 29  1  0
 13 30  1  0
 14 15  2  0
 14 19  1  0
 15 16  1  0
 15 31  1  0
 16 17  2  0
 16 32  1  0
 17 18  1  0
 17 33  1  0
 18 19  2  0
 18 34  1  0
 19 35  1  0
 20 21  2  0
 20 28  1  0
 21 22  1  0
 21 36  1  0
 22 23  2  0
 22 37  1  0
 23 24  1  0
 23 27  1  0
 24 25  1  0
 24 38  1  0
 25 26  2  0
 26 27  1  0
 26 39  1  0
 27 28  2  0
 28 40  1  0
M  END
>  <group_name>  (1) 
JNS

>  <molecule_index>  (1) 
01586

>  <conformer_index>  (1) 
02

>  <method>  (1) 
openff-1.3.0

>  <basis>  (1) 
smirnoff

>  <program>  (1) 
openmm

>  <initial_energy>  (1) 
186.53841901600248 kilocalorie / mole

>  <final_energy>  (1) 
174.072398945583 kilocalorie / mole

$$$$
