JNS-02240-03
     RDKit          3D

 51 55  0  0  0  0  0  0  0  0999 V2000
    1.3781    5.4854    4.1798 C   0  0  0  0  0  0  0  0  0  0  0  0
    0.4270    4.5483    3.5053 C   0  0  0  0  0  0  0  0  0  0  0  0
   -0.7900    4.4104    4.0373 N   0  0  0  0  0  0  0  0  0  0  0  0
   -1.6693    3.5756    3.4581 C   0  0  0  0  0  0  0  0  0  0  0  0
   -2.9942    3.4182    4.1295 C   0  0  0  0  0  0  0  0  0  0  0  0
   -3.6831    2.2413    4.0929 N   0  0  0  0  0  0  0  0  0  0  0  0
   -4.8514    2.2272    4.7675 C   0  0  0  0  0  0  0  0  0  0  0  0
   -5.3431    3.3469    5.4669 C   0  0  0  0  0  0  0  0  0  0  0  0
   -4.6833    4.5200    5.5198 N   0  0  0  0  0  0  0  0  0  0  0  0
   -3.5073    4.5310    4.8515 C   0  0  0  0  0  0  0  0  0  0  0  0
   -1.3057    2.9050    2.2733 C   0  0  0  0  0  0  0  0  0  0  0  0
   -2.2515    1.9497    1.5373 C   0  0  0  0  0  0  0  0  0  0  0  0
   -1.7903    1.5196    0.1312 C   0  0  1  0  0  0  0  0  0  0  0  0
   -2.0995    2.5394   -0.9834 C   0  0  0  0  0  0  0  0  0  0  0  0
   -1.2626    3.8237   -0.8949 C   0  0  0  0  0  0  0  0  0  0  0  0
    0.2244    3.4859   -0.7040 C   0  0  0  0  0  0  0  0  0  0  0  0
    0.4332    2.5037    0.4621 C   0  0  2  0  0  0  0  0  0  0  0  0
   -0.3493    1.2902    0.1937 N   0  0  0  0  0  0  0  0  0  0  0  0
    0.1570    0.0170    0.4327 C   0  0  0  0  0  0  0  0  0  0  0  0
   -0.6161   -0.9340    0.5195 O   0  0  0  0  0  0  0  0  0  0  0  0
    1.5788   -0.2339    0.7128 C   0  0  0  0  0  0  0  0  0  0  0  0
    1.9585   -0.7354    1.9576 C   0  0  0  0  0  0  0  0  0  0  0  0
    3.2992   -0.9683    2.2403 C   0  0  0  0  0  0  0  0  0  0  0  0
    4.2787   -0.7337    1.3530 N   0  0  0  0  0  0  0  0  0  0  0  0
    3.9491   -0.2685    0.1138 C   0  0  0  0  0  0  0  0  0  0  0  0
    2.5922   -0.0169   -0.2373 C   0  0  0  0  0  0  0  0  0  0  0  0
    2.1515    0.5211   -1.8499 Cl  0  0  0  0  0  0  0  0  0  0  0  0
    5.0696   -0.0138   -0.9079 C   0  0  0  0  0  0  0  0  0  0  0  0
    4.9133   -0.8137   -2.0039 F   0  0  0  0  0  0  0  0  0  0  0  0
    5.0668    1.2940   -1.3036 F   0  0  0  0  0  0  0  0  0  0  0  0
    6.3111   -0.2715   -0.3976 F   0  0  0  0  0  0  0  0  0  0  0  0
   -0.0255    3.1498    1.7597 C   0  0  0  0  0  0  0  0  0  0  0  0
    0.8348    3.9525    2.3856 N   0  0  0  0  0  0  0  0  0  0  0  0
    1.9626    4.9382    4.9232 H   0  0  0  0  0  0  0  0  0  0  0  0
    0.8279    6.2882    4.6777 H   0  0  0  0  0  0  0  0  0  0  0  0
    2.0573    5.9273    3.4458 H   0  0  0  0  0  0  0  0  0  0  0  0
   -5.4396    1.3147    4.7712 H   0  0  0  0  0  0  0  0  0  0  0  0
   -6.2936    3.2594    5.9842 H   0  0  0  0  0  0  0  0  0  0  0  0
   -2.9439    5.4591    4.8714 H   0  0  0  0  0  0  0  0  0  0  0  0
   -2.3374    1.0395    2.1406 H   0  0  0  0  0  0  0  0  0  0  0  0
   -3.2522    2.3864    1.4617 H   0  0  0  0  0  0  0  0  0  0  0  0
   -2.3264    0.6000   -0.1323 H   0  0  0  0  0  0  0  0  0  0  0  0
   -1.8918    2.0611   -1.9462 H   0  0  0  0  0  0  0  0  0  0  0  0
   -3.1644    2.7914   -0.9727 H   0  0  0  0  0  0  0  0  0  0  0  0
   -1.6168    4.4391   -0.0619 H   0  0  0  0  0  0  0  0  0  0  0  0
   -1.3929    4.4132   -1.8079 H   0  0  0  0  0  0  0  0  0  0  0  0
    0.6114    3.0403   -1.6253 H   0  0  0  0  0  0  0  0  0  0  0  0
    0.7905    4.4051   -0.5214 H   0  0  0  0  0  0  0  0  0  0  0  0
    1.5018    2.2926    0.5497 H   0  0  0  0  0  0  0  0  0  0  0  0
    1.2087   -0.9466    2.7148 H   0  0  0  0  0  0  0  0  0  0  0  0
    3.5675   -1.3532    3.2200 H   0  0  0  0  0  0  0  0  0  0  0  0
  1  2  1  0
  1 34  1  0
  1 35  1  0
  1 36  1  0
  2  3  2  0
  2 33  1  0
  3  4  1  0
  4  5  1  0
  4 11  2  0
  5  6  2  0
  5 10  1  0
  6  7  1  0
  7  8  2  0
  7 37  1  0
  8  9  1  0
  8 38  1  0
  9 10  2  0
 10 39  1  0
 11 12  1  0
 11 32  1  0
 12 13  1  0
 12 40  1  0
 12 41  1  0
 13 14  1  0
 13 18  1  0
 13 42  1  6
 14 15  1  0
 14 43  1  0
 14 44  1  0
 15 16  1  0
 15 45  1  0
 15 46  1  0
 16 17  1  0
 16 47  1  0
 16 48  1  0
 17 18  1  0
 17 32  1  0
 17 49  1  1
 18 19  1  0
 19 20  2  0
 19 21  1  0
 21 22  2  0
 21 26  1  0
 22 23  1  0
 22 50  1  0
 23 24  2  0
 23 51  1  0
 24 25  1  0
 25 26  2  0
 25 28  1  0
 26 27  1  0
 28 29  1  0
 28 30  1  0
 28 31  1  0
 32 33  2  0
M  END
>  <group_name>  (1) 
JNS

>  <molecule_index>  (1) 
02240

>  <conformer_index>  (1) 
03

>  <method>  (1) 
openff-1.3.0

>  <basis>  (1) 
smirnoff

>  <program>  (1) 
openmm

>  <initial_energy>  (1) 
129.9476771493851 kilocalorie / mole

>  <final_energy>  (1) 
120.99290079732573 kilocalorie / mole

$$$$
