JNS-01358-03
     RDKit          3D

 41 45  0  0  0  0  0  0  0  0999 V2000
   -3.4691    0.9534   -0.3143 F   0  0  0  0  0  0  0  0  0  0  0  0
   -2.5096   -0.0001   -0.2537 C   0  0  0  0  0  0  0  0  0  0  0  0
   -2.8747   -1.2913   -0.3280 N   0  0  0  0  0  0  0  0  0  0  0  0
   -1.8986   -2.2124   -0.2800 C   0  0  0  0  0  0  0  0  0  0  0  0
   -0.5484   -1.8867   -0.1392 C   0  0  0  0  0  0  0  0  0  0  0  0
   -0.1492   -0.5518   -0.0359 C   0  0  0  0  0  0  0  0  0  0  0  0
   -1.1770    0.3952   -0.1148 C   0  0  0  0  0  0  0  0  0  0  0  0
    1.2781   -0.1819    0.0983 C   0  0  0  0  0  0  0  0  0  0  0  0
    2.2156   -0.9590   -0.3995 N   0  0  0  0  0  0  0  0  0  0  0  0
    3.3962   -0.2603   -0.2141 C   0  0  0  0  0  0  0  0  0  0  0  0
    3.1760    0.9493    0.4147 C   0  0  0  0  0  0  0  0  0  0  0  0
    4.1547    1.8257    0.7173 N   0  0  0  0  0  0  0  0  0  0  0  0
    5.4295    1.4906    0.3697 C   0  0  0  0  0  0  0  0  0  0  0  0
    5.7033    0.2631   -0.2813 C   0  0  0  0  0  0  0  0  0  0  0  0
    4.6763   -0.6329   -0.5815 C   0  0  0  0  0  0  0  0  0  0  0  0
    6.5977    2.4383    0.6708 C   0  0  0  0  0  0  0  0  0  0  0  0
    7.2579    2.7384   -0.4866 F   0  0  0  0  0  0  0  0  0  0  0  0
    6.1957    3.6118    1.2449 F   0  0  0  0  0  0  0  0  0  0  0  0
    7.4797    1.8276    1.5156 F   0  0  0  0  0  0  0  0  0  0  0  0
    1.8168    0.9882    0.6644 N   0  0  0  0  0  0  0  0  0  0  0  0
    1.1824    1.8955    1.5374 C   0  0  0  0  0  0  0  0  0  0  0  0
    1.5492    3.2568    1.5445 C   0  0  0  0  0  0  0  0  0  0  0  0
    0.9154    4.1453    2.4169 C   0  0  0  0  0  0  0  0  0  0  0  0
   -0.0663    3.7040    3.2856 C   0  0  0  0  0  0  0  0  0  0  0  0
   -0.5293    4.7613    4.0411 N   0  0  0  0  0  0  0  0  0  0  0  0
    0.2194    5.8648    3.7488 C   0  0  0  0  0  0  0  0  0  0  0  0
    0.1985    6.8578    4.4628 O   0  0  0  0  0  0  0  0  0  0  0  0
    1.1865    5.6165    2.5977 C   0  0  0  0  0  0  0  0  0  0  0  0
   -0.4353    2.3637    3.3197 C   0  0  0  0  0  0  0  0  0  0  0  0
    0.1926    1.4613    2.4486 C   0  0  0  0  0  0  0  0  0  0  0  0
   -2.1746   -3.2605   -0.3528 H   0  0  0  0  0  0  0  0  0  0  0  0
    0.1866   -2.6858   -0.1130 H   0  0  0  0  0  0  0  0  0  0  0  0
   -0.9713    1.4596   -0.0820 H   0  0  0  0  0  0  0  0  0  0  0  0
    6.7266    0.0173   -0.5494 H   0  0  0  0  0  0  0  0  0  0  0  0
    4.8530   -1.5820   -1.0800 H   0  0  0  0  0  0  0  0  0  0  0  0
    2.3195    3.6290    0.8746 H   0  0  0  0  0  0  0  0  0  0  0  0
   -0.8789    4.6549    4.9869 H   0  0  0  0  0  0  0  0  0  0  0  0
    2.2177    5.8143    2.9001 H   0  0  0  0  0  0  0  0  0  0  0  0
    0.9046    6.1977    1.7171 H   0  0  0  0  0  0  0  0  0  0  0  0
   -1.1969    2.0222    4.0142 H   0  0  0  0  0  0  0  0  0  0  0  0
   -0.0873    0.4133    2.5032 H   0  0  0  0  0  0  0  0  0  0  0  0
  1  2  1  0
  2  3  2  0
  2  7  1  0
  3  4  1  0
  4  5  2  0
  4 31  1  0
  5  6  1  0
  5 32  1  0
  6  7  2  0
  6  8  1  0
  7 33  1  0
  8  9  2  0
  8 20  1  0
  9 10  1  0
 10 11  2  0
 10 15  1  0
 11 12  1  0
 11 20  1  0
 12 13  2  0
 13 14  1  0
 13 16  1  0
 14 15  2  0
 14 34  1  0
 15 35  1  0
 16 17  1  0
 16 18  1  0
 16 19  1  0
 20 21  1  0
 21 22  2  0
 21 30  1  0
 22 23  1  0
 22 36  1  0
 23 24  2  0
 23 28  1  0
 24 25  1  0
 24 29  1  0
 25 26  1  0
 25 37  1  0
 26 27  2  0
 26 28  1  0
 28 38  1  0
 28 39  1  0
 29 30  2  0
 29 40  1  0
 30 41  1  0
M  END
>  <group_name>  (1) 
JNS

>  <molecule_index>  (1) 
01358

>  <conformer_index>  (1) 
03

>  <method>  (1) 
openff-1.3.0

>  <basis>  (1) 
smirnoff

>  <program>  (1) 
openmm

>  <initial_energy>  (1) 
97.94855324943032 kilocalorie / mole

>  <final_energy>  (1) 
84.95339778739206 kilocalorie / mole

$$$$
