JNS-01594-00
     RDKit          3D

 39 42  0  0  0  0  0  0  0  0999 V2000
   -0.5641   -1.4038    0.5640 C   0  0  0  0  0  0  0  0  0  0  0  0
   -0.1196   -0.3319   -0.4417 C   0  0  0  0  0  0  0  0  0  0  0  0
   -0.4362   -0.7944   -1.8708 C   0  0  0  0  0  0  0  0  0  0  0  0
    1.3655   -0.0373   -0.2934 C   0  0  0  0  0  0  0  0  0  0  0  0
    2.2534   -1.0063   -0.3517 N   0  0  0  0  0  0  0  0  0  0  0  0
    3.4649   -0.4027   -0.0629 C   0  0  0  0  0  0  0  0  0  0  0  0
    3.3137    0.9487    0.1742 C   0  0  0  0  0  0  0  0  0  0  0  0
    4.3323    1.7758    0.4837 N   0  0  0  0  0  0  0  0  0  0  0  0
    5.5799    1.2317    0.5665 C   0  0  0  0  0  0  0  0  0  0  0  0
    5.7841   -0.1504    0.3332 C   0  0  0  0  0  0  0  0  0  0  0  0
    4.7149   -0.9884    0.0127 C   0  0  0  0  0  0  0  0  0  0  0  0
    6.7916    2.1018    0.9248 C   0  0  0  0  0  0  0  0  0  0  0  0
    7.4328    1.5766    2.0107 F   0  0  0  0  0  0  0  0  0  0  0  0
    7.6717    2.1184   -0.1191 F   0  0  0  0  0  0  0  0  0  0  0  0
    6.4513    3.3919    1.2215 F   0  0  0  0  0  0  0  0  0  0  0  0
    1.9672    1.2027   -0.0083 N   0  0  0  0  0  0  0  0  0  0  0  0
    1.3689    2.4794    0.0124 C   0  0  0  0  0  0  0  0  0  0  0  0
    1.7822    3.4451    0.9526 C   0  0  0  0  0  0  0  0  0  0  0  0
    1.1830    4.7072    0.9599 C   0  0  0  0  0  0  0  0  0  0  0  0
    0.2021    5.0304    0.0608 C   0  0  0  0  0  0  0  0  0  0  0  0
   -0.1572    6.3358    0.3518 N   0  0  0  0  0  0  0  0  0  0  0  0
    0.5614    6.8398    1.3975 N   0  0  0  0  0  0  0  0  0  0  0  0
    1.3764    5.8832    1.7787 C   0  0  0  0  0  0  0  0  0  0  0  0
   -0.2242    4.1115   -0.9006 C   0  0  0  0  0  0  0  0  0  0  0  0
   -1.5785    4.5708   -2.1718 Br  0  0  0  0  0  0  0  0  0  0  0  0
    0.3725    2.8415   -0.9214 C   0  0  0  0  0  0  0  0  0  0  0  0
   -0.0436   -2.3499    0.3820 H   0  0  0  0  0  0  0  0  0  0  0  0
   -0.3431   -1.0772    1.5852 H   0  0  0  0  0  0  0  0  0  0  0  0
   -1.6413   -1.5794    0.4832 H   0  0  0  0  0  0  0  0  0  0  0  0
   -0.6967    0.5693   -0.2251 H   0  0  0  0  0  0  0  0  0  0  0  0
   -1.5101   -0.9723   -1.9851 H   0  0  0  0  0  0  0  0  0  0  0  0
    0.0973   -1.7224   -2.1020 H   0  0  0  0  0  0  0  0  0  0  0  0
   -0.1324   -0.0346   -2.5968 H   0  0  0  0  0  0  0  0  0  0  0  0
    6.7864   -0.5622    0.4051 H   0  0  0  0  0  0  0  0  0  0  0  0
    4.8367   -2.0521   -0.1713 H   0  0  0  0  0  0  0  0  0  0  0  0
    2.5566    3.2182    1.6801 H   0  0  0  0  0  0  0  0  0  0  0  0
   -0.8673    6.8525   -0.1688 H   0  0  0  0  0  0  0  0  0  0  0  0
    2.0913    5.9638    2.5923 H   0  0  0  0  0  0  0  0  0  0  0  0
    0.0667    2.1482   -1.6963 H   0  0  0  0  0  0  0  0  0  0  0  0
  1  2  1  0
  1 27  1  0
  1 28  1  0
  1 29  1  0
  2  3  1  0
  2  4  1  0
  2 30  1  0
  3 31  1  0
  3 32  1  0
  3 33  1  0
  4  5  2  0
  4 16  1  0
  5  6  1  0
  6  7  2  0
  6 11  1  0
  7  8  1  0
  7 16  1  0
  8  9  2  0
  9 10  1  0
  9 12  1  0
 10 11  2  0
 10 34  1  0
 11 35  1  0
 12 13  1  0
 12 14  1  0
 12 15  1  0
 16 17  1  0
 17 18  2  0
 17 26  1  0
 18 19  1  0
 18 36  1  0
 19 20  2  0
 19 23  1  0
 20 21  1  0
 20 24  1  0
 21 22  1  0
 21 37  1  0
 22 23  2  0
 23 38  1  0
 24 25  1  0
 24 26  2  0
 26 39  1  0
M  END
>  <group_name>  (1) 
JNS

>  <molecule_index>  (1) 
01594

>  <conformer_index>  (1) 
00

>  <method>  (1) 
openff-1.3.0

>  <basis>  (1) 
smirnoff

>  <program>  (1) 
openmm

>  <initial_energy>  (1) 
155.25078978620562 kilocalorie / mole

>  <final_energy>  (1) 
145.04798832163584 kilocalorie / mole

$$$$
