JNS-01548-01
     RDKit          3D

 36 39  0  0  0  0  0  0  0  0999 V2000
   -2.9317   -0.9021    2.2536 C   0  0  0  0  0  0  0  0  0  0  0  0
   -2.1443   -0.4760    1.0388 C   0  0  0  0  0  0  0  0  0  0  0  0
   -0.7484   -0.3198    1.1073 C   0  0  0  0  0  0  0  0  0  0  0  0
    0.0114    0.0742   -0.0152 C   0  0  0  0  0  0  0  0  0  0  0  0
   -0.6618    0.2881   -1.2336 C   0  0  0  0  0  0  0  0  0  0  0  0
   -2.0473    0.1362   -1.2968 C   0  0  0  0  0  0  0  0  0  0  0  0
   -2.7842   -0.2370   -0.1848 C   0  0  0  0  0  0  0  0  0  0  0  0
   -4.1578   -0.3556   -0.3892 N   0  0  0  0  0  0  0  0  0  0  0  0
   -4.4274   -0.0784   -1.6323 C   0  0  0  0  0  0  0  0  0  0  0  0
   -5.7298   -0.1538   -1.9774 O   0  0  0  0  0  0  0  0  0  0  0  0
   -3.0779    0.3529   -2.6883 S   0  0  0  0  0  0  0  0  0  0  0  0
    1.4106    0.2112    0.0863 N   0  0  0  0  0  0  0  0  0  0  0  0
    2.2428   -0.6788    0.7411 C   0  0  0  0  0  0  0  0  0  0  0  0
    3.5235   -0.2708    0.4352 C   0  0  0  0  0  0  0  0  0  0  0  0
    4.6144   -0.9711    0.9167 C   0  0  0  0  0  0  0  0  0  0  0  0
    4.3449   -2.0888    1.7076 C   0  0  0  0  0  0  0  0  0  0  0  0
    3.0118   -2.4726    1.9920 C   0  0  0  0  0  0  0  0  0  0  0  0
    1.9615   -1.7570    1.4995 N   0  0  0  0  0  0  0  0  0  0  0  0
    2.7746   -3.7060    2.8726 C   0  0  0  0  0  0  0  0  0  0  0  0
    3.4267   -3.5543    4.0631 F   0  0  0  0  0  0  0  0  0  0  0  0
    1.4520   -3.9219    3.1404 F   0  0  0  0  0  0  0  0  0  0  0  0
    3.2751   -4.8154    2.2537 F   0  0  0  0  0  0  0  0  0  0  0  0
    3.5184    0.8625   -0.3581 N   0  0  0  0  0  0  0  0  0  0  0  0
    2.2439    1.1627   -0.5454 C   0  0  0  0  0  0  0  0  0  0  0  0
    1.8140    2.4375   -1.2827 C   0  0  0  0  0  0  0  0  0  0  0  0
    2.7214    3.4429   -1.1059 F   0  0  0  0  0  0  0  0  0  0  0  0
    0.6121    2.9092   -0.8400 F   0  0  0  0  0  0  0  0  0  0  0  0
    1.7171    2.1895   -2.6218 F   0  0  0  0  0  0  0  0  0  0  0  0
   -2.2695   -1.1166    3.0975 H   0  0  0  0  0  0  0  0  0  0  0  0
   -3.6253   -0.1077    2.5445 H   0  0  0  0  0  0  0  0  0  0  0  0
   -3.5070   -1.8048    2.0270 H   0  0  0  0  0  0  0  0  0  0  0  0
   -0.2508   -0.5017    2.0553 H   0  0  0  0  0  0  0  0  0  0  0  0
   -0.1293    0.5475   -2.1420 H   0  0  0  0  0  0  0  0  0  0  0  0
   -6.1777   -0.4155   -1.1586 H   0  0  0  0  0  0  0  0  0  0  0  0
    5.6250   -0.6495    0.6792 H   0  0  0  0  0  0  0  0  0  0  0  0
    5.1669   -2.6731    2.1108 H   0  0  0  0  0  0  0  0  0  0  0  0
  1  2  1  0
  1 29  1  0
  1 30  1  0
  1 31  1  0
  2  3  2  0
  2  7  1  0
  3  4  1  0
  3 32  1  0
  4  5  2  0
  4 12  1  0
  5  6  1  0
  5 33  1  0
  6  7  2  0
  6 11  1  0
  7  8  1  0
  8  9  2  0
  9 10  1  0
  9 11  1  0
 10 34  1  0
 12 13  1  0
 12 24  1  0
 13 14  1  0
 13 18  2  0
 14 15  2  0
 14 23  1  0
 15 16  1  0
 15 35  1  0
 16 17  2  0
 16 36  1  0
 17 18  1  0
 17 19  1  0
 19 20  1  0
 19 21  1  0
 19 22  1  0
 23 24  2  0
 24 25  1  0
 25 26  1  0
 25 27  1  0
 25 28  1  0
M  END
>  <group_name>  (1) 
JNS

>  <molecule_index>  (1) 
01548

>  <conformer_index>  (1) 
01

>  <method>  (1) 
openff-1.3.0

>  <basis>  (1) 
smirnoff

>  <program>  (1) 
openmm

>  <initial_energy>  (1) 
135.4826896338618 kilocalorie / mole

>  <final_energy>  (1) 
123.20294685305929 kilocalorie / mole

$$$$
