JNS-01564-09
     RDKit          3D

 45 49  0  0  0  0  0  0  0  0999 V2000
   -2.5265   -0.1435   -2.6421 C   0  0  0  0  0  0  0  0  0  0  0  0
   -1.8720   -0.0761   -1.2847 C   0  0  0  0  0  0  0  0  0  0  0  0
   -2.6381    0.0125   -0.1191 C   0  0  0  0  0  0  0  0  0  0  0  0
   -4.0117    0.0324    0.0311 N   0  0  0  0  0  0  0  0  0  0  0  0
   -4.3086   -0.0143    1.3617 C   0  0  0  0  0  0  0  0  0  0  0  0
   -5.4381   -0.2623    1.7607 O   0  0  0  0  0  0  0  0  0  0  0  0
   -3.0628    0.0899    2.2326 C   0  0  0  0  0  0  0  0  0  0  0  0
   -2.0379    0.0676    1.1284 C   0  0  0  0  0  0  0  0  0  0  0  0
   -0.6479    0.0504    1.2550 C   0  0  0  0  0  0  0  0  0  0  0  0
    0.1545   -0.0063    0.1013 C   0  0  0  0  0  0  0  0  0  0  0  0
   -0.4717   -0.0807   -1.1597 C   0  0  0  0  0  0  0  0  0  0  0  0
    1.6247   -0.0116    0.2013 C   0  0  0  0  0  0  0  0  0  0  0  0
    2.4933   -0.7515   -0.5554 C   0  0  0  0  0  0  0  0  0  0  0  0
    2.2416   -1.6215   -1.5525 N   0  0  0  0  0  0  0  0  0  0  0  0
    3.3086   -2.2430   -2.1296 C   0  0  0  0  0  0  0  0  0  0  0  0
    4.6282   -1.9791   -1.6905 C   0  0  0  0  0  0  0  0  0  0  0  0
    4.8708   -1.0770   -0.6554 C   0  0  0  0  0  0  0  0  0  0  0  0
    3.7659   -0.4622   -0.0917 C   0  0  0  0  0  0  0  0  0  0  0  0
    3.7603    0.4059    0.8832 N   0  0  0  0  0  0  0  0  0  0  0  0
    2.4470    0.7174    1.0680 N   0  0  0  0  0  0  0  0  0  0  0  0
    1.9965    1.8032    1.9597 C   0  0  0  0  0  0  0  0  0  0  0  0
    3.0113    2.9024    2.3006 C   0  0  0  0  0  0  0  0  0  0  0  0
    1.9626    3.9629    1.9922 C   0  0  0  0  0  0  0  0  0  0  0  0
    1.1102    2.8859    1.3347 C   0  0  0  0  0  0  0  0  0  0  0  0
    3.1037   -3.2373   -3.2777 C   0  0  0  0  0  0  0  0  0  0  0  0
    3.8386   -2.8512   -4.3630 F   0  0  0  0  0  0  0  0  0  0  0  0
    3.5326   -4.4774   -2.8985 F   0  0  0  0  0  0  0  0  0  0  0  0
    1.7983   -3.3381   -3.6716 F   0  0  0  0  0  0  0  0  0  0  0  0
   -3.2745    0.6489   -2.7412 H   0  0  0  0  0  0  0  0  0  0  0  0
   -1.7867   -0.0187   -3.4388 H   0  0  0  0  0  0  0  0  0  0  0  0
   -3.0160   -1.1133   -2.7725 H   0  0  0  0  0  0  0  0  0  0  0  0
   -4.6393   -0.4265   -0.6193 H   0  0  0  0  0  0  0  0  0  0  0  0
   -3.0507    1.0313    2.7862 H   0  0  0  0  0  0  0  0  0  0  0  0
   -2.9755   -0.7728    2.8973 H   0  0  0  0  0  0  0  0  0  0  0  0
   -0.2016    0.0585    2.2438 H   0  0  0  0  0  0  0  0  0  0  0  0
    0.1414   -0.1426   -2.0548 H   0  0  0  0  0  0  0  0  0  0  0  0
    5.4613   -2.4870   -2.1660 H   0  0  0  0  0  0  0  0  0  0  0  0
    5.8748   -0.8607   -0.3006 H   0  0  0  0  0  0  0  0  0  0  0  0
    1.5548    1.3895    2.8708 H   0  0  0  0  0  0  0  0  0  0  0  0
    3.8670    2.9530    1.6184 H   0  0  0  0  0  0  0  0  0  0  0  0
    3.3639    2.8885    3.3367 H   0  0  0  0  0  0  0  0  0  0  0  0
    2.2989    4.7561    1.3163 H   0  0  0  0  0  0  0  0  0  0  0  0
    1.5041    4.3961    2.8877 H   0  0  0  0  0  0  0  0  0  0  0  0
    0.0648    2.8661    1.6586 H   0  0  0  0  0  0  0  0  0  0  0  0
    1.1603    2.9160    0.2405 H   0  0  0  0  0  0  0  0  0  0  0  0
  1  2  1  0
  1 29  1  0
  1 30  1  0
  1 31  1  0
  2  3  2  0
  2 11  1  0
  3  4  1  0
  3  8  1  0
  4  5  1  0
  4 32  1  0
  5  6  2  0
  5  7  1  0
  7  8  1  0
  7 33  1  0
  7 34  1  0
  8  9  2  0
  9 10  1  0
  9 35  1  0
 10 11  2  0
 10 12  1  0
 11 36  1  0
 12 13  2  0
 12 20  1  0
 13 14  1  0
 13 18  1  0
 14 15  2  0
 15 16  1  0
 15 25  1  0
 16 17  2  0
 16 37  1  0
 17 18  1  0
 17 38  1  0
 18 19  2  0
 19 20  1  0
 20 21  1  0
 21 22  1  0
 21 24  1  0
 21 39  1  0
 22 23  1  0
 22 40  1  0
 22 41  1  0
 23 24  1  0
 23 42  1  0
 23 43  1  0
 24 44  1  0
 24 45  1  0
 25 26  1  0
 25 27  1  0
 25 28  1  0
M  END
>  <group_name>  (1) 
JNS

>  <molecule_index>  (1) 
01564

>  <conformer_index>  (1) 
09

>  <method>  (1) 
openff-1.3.0

>  <basis>  (1) 
smirnoff

>  <program>  (1) 
openmm

>  <initial_energy>  (1) 
139.14051255539738 kilocalorie / mole

>  <final_energy>  (1) 
124.84848764053845 kilocalorie / mole

$$$$
