JNS-01374-01
     RDKit          3D

 32 35  0  0  0  0  0  0  0  0999 V2000
   -0.3599    1.5876    0.2726 F   0  0  0  0  0  0  0  0  0  0  0  0
   -0.0934    0.2538    0.1488 C   0  0  0  0  0  0  0  0  0  0  0  0
   -0.6498   -0.3884    1.2176 F   0  0  0  0  0  0  0  0  0  0  0  0
   -0.7213   -0.1716   -0.9862 F   0  0  0  0  0  0  0  0  0  0  0  0
    1.4161   -0.0148    0.1084 C   0  0  0  0  0  0  0  0  0  0  0  0
    2.2803    0.7745    0.7249 N   0  0  0  0  0  0  0  0  0  0  0  0
    3.5341    0.3024    0.3800 C   0  0  0  0  0  0  0  0  0  0  0  0
    3.4464   -0.7896   -0.4552 C   0  0  0  0  0  0  0  0  0  0  0  0
    4.5120   -1.4544   -0.9409 N   0  0  0  0  0  0  0  0  0  0  0  0
    5.7485   -1.0026   -0.5857 C   0  0  0  0  0  0  0  0  0  0  0  0
    5.8906    0.1206    0.2654 C   0  0  0  0  0  0  0  0  0  0  0  0
    4.7707    0.7897    0.7617 C   0  0  0  0  0  0  0  0  0  0  0  0
    7.0156   -1.6977   -1.1002 C   0  0  0  0  0  0  0  0  0  0  0  0
    6.7461   -2.7456   -1.9343 F   0  0  0  0  0  0  0  0  0  0  0  0
    7.7875   -0.8000   -1.7808 F   0  0  0  0  0  0  0  0  0  0  0  0
    7.7427   -2.1668   -0.0438 F   0  0  0  0  0  0  0  0  0  0  0  0
    2.0925   -1.0285   -0.6122 N   0  0  0  0  0  0  0  0  0  0  0  0
    1.5489   -2.1521   -1.2782 C   0  0  0  0  0  0  0  0  0  0  0  0
    0.4532   -2.8564   -0.7580 C   0  0  0  0  0  0  0  0  0  0  0  0
   -0.0016   -3.9498   -1.4806 C   0  0  0  0  0  0  0  0  0  0  0  0
    0.6148   -4.3146   -2.6422 C   0  0  0  0  0  0  0  0  0  0  0  0
   -0.0611   -5.4203   -3.1049 N   0  0  0  0  0  0  0  0  0  0  0  0
   -1.0888   -5.7767   -2.2763 N   0  0  0  0  0  0  0  0  0  0  0  0
   -1.0715   -4.9069   -1.2922 C   0  0  0  0  0  0  0  0  0  0  0  0
    1.6683   -3.6929   -3.1765 N   0  0  0  0  0  0  0  0  0  0  0  0
    2.1280   -2.6280   -2.4840 C   0  0  0  0  0  0  0  0  0  0  0  0
    6.8853    0.4636    0.5354 H   0  0  0  0  0  0  0  0  0  0  0  0
    4.8452    1.6531    1.4176 H   0  0  0  0  0  0  0  0  0  0  0  0
   -0.0233   -2.5928    0.1815 H   0  0  0  0  0  0  0  0  0  0  0  0
    0.2072   -5.8963   -3.9637 H   0  0  0  0  0  0  0  0  0  0  0  0
   -1.7644   -4.9072   -0.4555 H   0  0  0  0  0  0  0  0  0  0  0  0
    2.9761   -2.1002   -2.9092 H   0  0  0  0  0  0  0  0  0  0  0  0
  1  2  1  0
  2  3  1  0
  2  4  1  0
  2  5  1  0
  5  6  2  0
  5 17  1  0
  6  7  1  0
  7  8  2  0
  7 12  1  0
  8  9  1  0
  8 17  1  0
  9 10  2  0
 10 11  1  0
 10 13  1  0
 11 12  2  0
 11 27  1  0
 12 28  1  0
 13 14  1  0
 13 15  1  0
 13 16  1  0
 17 18  1  0
 18 19  2  0
 18 26  1  0
 19 20  1  0
 19 29  1  0
 20 21  2  0
 20 24  1  0
 21 22  1  0
 21 25  1  0
 22 23  1  0
 22 30  1  0
 23 24  2  0
 24 31  1  0
 25 26  2  0
 26 32  1  0
M  END
>  <group_name>  (1) 
JNS

>  <molecule_index>  (1) 
01374

>  <conformer_index>  (1) 
01

>  <method>  (1) 
openff-1.3.0

>  <basis>  (1) 
smirnoff

>  <program>  (1) 
openmm

>  <initial_energy>  (1) 
168.81156140901834 kilocalorie / mole

>  <final_energy>  (1) 
154.67084920731352 kilocalorie / mole

$$$$
