JNS-01374-07
     RDKit          3D

 32 35  0  0  0  0  0  0  0  0999 V2000
   -0.7905    0.4371   -0.1666 F   0  0  0  0  0  0  0  0  0  0  0  0
   -0.0132   -0.1198    0.8081 C   0  0  0  0  0  0  0  0  0  0  0  0
   -0.4929   -1.3676    1.0835 F   0  0  0  0  0  0  0  0  0  0  0  0
   -0.1652    0.6226    1.9443 F   0  0  0  0  0  0  0  0  0  0  0  0
    1.4506   -0.1521    0.3514 C   0  0  0  0  0  0  0  0  0  0  0  0
    2.2793    0.8488    0.5992 N   0  0  0  0  0  0  0  0  0  0  0  0
    3.5200    0.4297    0.1534 C   0  0  0  0  0  0  0  0  0  0  0  0
    3.4595   -0.8401   -0.3771 C   0  0  0  0  0  0  0  0  0  0  0  0
    4.5188   -1.4932   -0.8917 N   0  0  0  0  0  0  0  0  0  0  0  0
    5.7219   -0.8517   -0.8708 C   0  0  0  0  0  0  0  0  0  0  0  0
    5.8364    0.4523   -0.3298 C   0  0  0  0  0  0  0  0  0  0  0  0
    4.7225    1.1117    0.1923 C   0  0  0  0  0  0  0  0  0  0  0  0
    6.9808   -1.5265   -1.4304 C   0  0  0  0  0  0  0  0  0  0  0  0
    7.4836   -0.7800   -2.4573 F   0  0  0  0  0  0  0  0  0  0  0  0
    7.9335   -1.6017   -0.4549 F   0  0  0  0  0  0  0  0  0  0  0  0
    6.7458   -2.7901   -1.8938 F   0  0  0  0  0  0  0  0  0  0  0  0
    2.1305   -1.2156   -0.2897 N   0  0  0  0  0  0  0  0  0  0  0  0
    1.5923   -2.3957   -0.8545 C   0  0  0  0  0  0  0  0  0  0  0  0
    0.3655   -2.3925   -1.5342 C   0  0  0  0  0  0  0  0  0  0  0  0
   -0.0737   -3.5986   -2.0604 C   0  0  0  0  0  0  0  0  0  0  0  0
    0.6795   -4.7280   -1.9206 C   0  0  0  0  0  0  0  0  0  0  0  0
   -0.0190   -5.7353   -2.5457 N   0  0  0  0  0  0  0  0  0  0  0  0
   -1.1940   -5.2874   -3.0831 N   0  0  0  0  0  0  0  0  0  0  0  0
   -1.2475   -4.0050   -2.8042 C   0  0  0  0  0  0  0  0  0  0  0  0
    1.8591   -4.7881   -1.2987 N   0  0  0  0  0  0  0  0  0  0  0  0
    2.3050   -3.6215   -0.7837 C   0  0  0  0  0  0  0  0  0  0  0  0
    6.8046    0.9445   -0.3231 H   0  0  0  0  0  0  0  0  0  0  0  0
    4.7761    2.1124    0.6130 H   0  0  0  0  0  0  0  0  0  0  0  0
   -0.2251   -1.4926   -1.6781 H   0  0  0  0  0  0  0  0  0  0  0  0
    0.3335   -6.6893   -2.5900 H   0  0  0  0  0  0  0  0  0  0  0  0
   -2.0601   -3.3439   -3.0919 H   0  0  0  0  0  0  0  0  0  0  0  0
    3.2566   -3.6520   -0.2618 H   0  0  0  0  0  0  0  0  0  0  0  0
  1  2  1  0
  2  3  1  0
  2  4  1  0
  2  5  1  0
  5  6  2  0
  5 17  1  0
  6  7  1  0
  7  8  2  0
  7 12  1  0
  8  9  1  0
  8 17  1  0
  9 10  2  0
 10 11  1  0
 10 13  1  0
 11 12  2  0
 11 27  1  0
 12 28  1  0
 13 14  1  0
 13 15  1  0
 13 16  1  0
 17 18  1  0
 18 19  2  0
 18 26  1  0
 19 20  1  0
 19 29  1  0
 20 21  2  0
 20 24  1  0
 21 22  1  0
 21 25  1  0
 22 23  1  0
 22 30  1  0
 23 24  2  0
 24 31  1  0
 25 26  2  0
 26 32  1  0
M  END
>  <group_name>  (1) 
JNS

>  <molecule_index>  (1) 
01374

>  <conformer_index>  (1) 
07

>  <method>  (1) 
openff-1.3.0

>  <basis>  (1) 
smirnoff

>  <program>  (1) 
openmm

>  <initial_energy>  (1) 
168.02391692626009 kilocalorie / mole

>  <final_energy>  (1) 
154.6741713388543 kilocalorie / mole

$$$$
