JNS-01082-09
     RDKit          3D

 43 46  0  0  0  0  0  0  0  0999 V2000
   -0.0463    3.7446    0.6619 C   0  0  0  0  0  0  0  0  0  0  0  0
    0.4084    2.5821   -0.2291 C   0  0  2  0  0  0  0  0  0  0  0  0
    0.4046    2.9646   -1.7196 C   0  0  0  0  0  0  0  0  0  0  0  0
   -1.0107    3.1153   -2.2285 C   0  0  0  0  0  0  0  0  0  0  0  0
   -2.0163    2.3923   -1.6703 C   0  0  0  0  0  0  0  0  0  0  0  0
   -1.8201    1.3971   -0.5532 C   0  0  0  0  0  0  0  0  0  0  0  0
   -0.4534    1.4106    0.0067 N   0  0  0  0  0  0  0  0  0  0  0  0
   -0.0972    0.4005    0.8953 C   0  0  0  0  0  0  0  0  0  0  0  0
   -0.9608   -0.3804    1.2868 O   0  0  0  0  0  0  0  0  0  0  0  0
    1.2534    0.2320    1.4481 C   0  0  0  0  0  0  0  0  0  0  0  0
    2.3842    0.0817    0.6323 C   0  0  0  0  0  0  0  0  0  0  0  0
    2.2426    0.0833   -0.7210 F   0  0  0  0  0  0  0  0  0  0  0  0
    3.6607   -0.0891    1.2244 C   0  0  0  0  0  0  0  0  0  0  0  0
    3.8151   -0.1346    2.5801 N   0  0  0  0  0  0  0  0  0  0  0  0
    2.7211   -0.0347    3.3551 C   0  0  0  0  0  0  0  0  0  0  0  0
    1.4426    0.1442    2.8304 C   0  0  0  0  0  0  0  0  0  0  0  0
    4.8819   -0.2169    0.3090 C   0  0  0  0  0  0  0  0  0  0  0  0
    6.0493   -0.3402    1.0077 F   0  0  0  0  0  0  0  0  0  0  0  0
    4.7607   -1.3157   -0.4920 F   0  0  0  0  0  0  0  0  0  0  0  0
    4.9918    0.8943   -0.4781 F   0  0  0  0  0  0  0  0  0  0  0  0
   -3.2311    2.7646   -2.2083 N   0  0  0  0  0  0  0  0  0  0  0  0
   -2.9958    3.6987   -3.0936 N   0  0  0  0  0  0  0  0  0  0  0  0
   -1.6534    3.9405   -3.1462 N   0  0  0  0  0  0  0  0  0  0  0  0
   -1.0544    4.8565   -4.0440 C   0  0  0  0  0  0  0  0  0  0  0  0
    0.2927    4.9558   -4.0794 N   0  0  0  0  0  0  0  0  0  0  0  0
    0.8421    5.8165   -4.9429 C   0  0  0  0  0  0  0  0  0  0  0  0
    0.0759    6.6034   -5.7908 C   0  0  0  0  0  0  0  0  0  0  0  0
    0.6677    7.4874   -6.6755 O   0  0  0  0  0  0  0  0  0  0  0  0
   -1.3006    6.4490   -5.6949 C   0  0  0  0  0  0  0  0  0  0  0  0
   -1.8605    5.5942   -4.8389 N   0  0  0  0  0  0  0  0  0  0  0  0
    0.0135    3.4562    1.7156 H   0  0  0  0  0  0  0  0  0  0  0  0
   -1.0783    4.0350    0.4419 H   0  0  0  0  0  0  0  0  0  0  0  0
    0.5979    4.6152    0.5062 H   0  0  0  0  0  0  0  0  0  0  0  0
    1.4457    2.3708    0.0383 H   0  0  0  0  0  0  0  0  0  0  0  0
    0.9046    2.1826   -2.2993 H   0  0  0  0  0  0  0  0  0  0  0  0
    0.9702    3.8903   -1.8535 H   0  0  0  0  0  0  0  0  0  0  0  0
   -2.0440    0.4011   -0.9486 H   0  0  0  0  0  0  0  0  0  0  0  0
   -2.5456    1.6102    0.2381 H   0  0  0  0  0  0  0  0  0  0  0  0
    2.8407   -0.0937    4.4332 H   0  0  0  0  0  0  0  0  0  0  0  0
    0.5934    0.2086    3.5053 H   0  0  0  0  0  0  0  0  0  0  0  0
    1.9243    5.9022   -4.9810 H   0  0  0  0  0  0  0  0  0  0  0  0
    0.0134    7.9614   -7.2200 H   0  0  0  0  0  0  0  0  0  0  0  0
   -1.9488    7.0407   -6.3347 H   0  0  0  0  0  0  0  0  0  0  0  0
  1  2  1  0
  1 31  1  0
  1 32  1  0
  1 33  1  0
  2  3  1  0
  2  7  1  0
  2 34  1  1
  3  4  1  0
  3 35  1  0
  3 36  1  0
  4  5  2  0
  4 23  1  0
  5  6  1  0
  5 21  1  0
  6  7  1  0
  6 37  1  0
  6 38  1  0
  7  8  1  0
  8  9  2  0
  8 10  1  0
 10 11  2  0
 10 16  1  0
 11 12  1  0
 11 13  1  0
 13 14  2  0
 13 17  1  0
 14 15  1  0
 15 16  2  0
 15 39  1  0
 16 40  1  0
 17 18  1  0
 17 19  1  0
 17 20  1  0
 21 22  2  0
 22 23  1  0
 23 24  1  0
 24 25  2  0
 24 30  1  0
 25 26  1  0
 26 27  2  0
 26 41  1  0
 27 28  1  0
 27 29  1  0
 28 42  1  0
 29 30  2  0
 29 43  1  0
M  END
>  <group_name>  (1) 
JNS

>  <molecule_index>  (1) 
01082

>  <conformer_index>  (1) 
09

>  <method>  (1) 
openff-1.3.0

>  <basis>  (1) 
smirnoff

>  <program>  (1) 
openmm

>  <initial_energy>  (1) 
113.47744069540295 kilocalorie / mole

>  <final_energy>  (1) 
102.3309105047671 kilocalorie / mole

$$$$
