JNS-01548-08
     RDKit          3D

 36 39  0  0  0  0  0  0  0  0999 V2000
   -2.9986   -1.1096   -2.2177 C   0  0  0  0  0  0  0  0  0  0  0  0
   -2.1768   -0.6439   -1.0405 C   0  0  0  0  0  0  0  0  0  0  0  0
   -0.7713   -0.6329   -1.1042 C   0  0  0  0  0  0  0  0  0  0  0  0
    0.0163   -0.1974   -0.0158 C   0  0  0  0  0  0  0  0  0  0  0  0
   -0.6397    0.2022    1.1637 C   0  0  0  0  0  0  0  0  0  0  0  0
   -2.0333    0.1868    1.2242 C   0  0  0  0  0  0  0  0  0  0  0  0
   -2.7966   -0.2235    0.1441 C   0  0  0  0  0  0  0  0  0  0  0  0
   -4.1763   -0.1895    0.3384 N   0  0  0  0  0  0  0  0  0  0  0  0
   -4.4237    0.2369    1.5437 C   0  0  0  0  0  0  0  0  0  0  0  0
   -5.7294    0.3229    1.8746 O   0  0  0  0  0  0  0  0  0  0  0  0
   -3.0445    0.6435    2.5708 S   0  0  0  0  0  0  0  0  0  0  0  0
    1.4242   -0.1904   -0.0815 N   0  0  0  0  0  0  0  0  0  0  0  0
    2.2607   -0.6424    0.9229 C   0  0  0  0  0  0  0  0  0  0  0  0
    3.5264   -0.6240    0.3771 C   0  0  0  0  0  0  0  0  0  0  0  0
    4.6139   -1.0472    1.1192 C   0  0  0  0  0  0  0  0  0  0  0  0
    4.3561   -1.4858    2.4187 C   0  0  0  0  0  0  0  0  0  0  0  0
    3.0376   -1.4909    2.9352 C   0  0  0  0  0  0  0  0  0  0  0  0
    1.9902   -1.0658    2.1735 N   0  0  0  0  0  0  0  0  0  0  0  0
    2.8140   -1.9792    4.3721 C   0  0  0  0  0  0  0  0  0  0  0  0
    3.1894   -3.2879    4.4759 F   0  0  0  0  0  0  0  0  0  0  0  0
    1.5125   -1.8719    4.7743 F   0  0  0  0  0  0  0  0  0  0  0  0
    3.5837   -1.2481    5.2316 F   0  0  0  0  0  0  0  0  0  0  0  0
    3.5119   -0.1436   -0.9201 N   0  0  0  0  0  0  0  0  0  0  0  0
    2.2469    0.1392   -1.1830 C   0  0  0  0  0  0  0  0  0  0  0  0
    1.8259    0.8149   -2.4945 C   0  0  0  0  0  0  0  0  0  0  0  0
    1.5748   -0.1320   -3.4457 F   0  0  0  0  0  0  0  0  0  0  0  0
    0.7091    1.5849   -2.3436 F   0  0  0  0  0  0  0  0  0  0  0  0
    2.8096    1.6356   -2.9682 F   0  0  0  0  0  0  0  0  0  0  0  0
   -3.6444   -0.2971   -2.5642 H   0  0  0  0  0  0  0  0  0  0  0  0
   -3.6275   -1.9546   -1.9216 H   0  0  0  0  0  0  0  0  0  0  0  0
   -2.3591   -1.4248   -3.0471 H   0  0  0  0  0  0  0  0  0  0  0  0
   -0.2990   -0.9942   -2.0104 H   0  0  0  0  0  0  0  0  0  0  0  0
   -0.0775    0.5329    2.0325 H   0  0  0  0  0  0  0  0  0  0  0  0
   -6.1961    0.0220    1.0804 H   0  0  0  0  0  0  0  0  0  0  0  0
    5.6132   -1.0307    0.6923 H   0  0  0  0  0  0  0  0  0  0  0  0
    5.1760   -1.8284    3.0432 H   0  0  0  0  0  0  0  0  0  0  0  0
  1  2  1  0
  1 29  1  0
  1 30  1  0
  1 31  1  0
  2  3  2  0
  2  7  1  0
  3  4  1  0
  3 32  1  0
  4  5  2  0
  4 12  1  0
  5  6  1  0
  5 33  1  0
  6  7  2  0
  6 11  1  0
  7  8  1  0
  8  9  2  0
  9 10  1  0
  9 11  1  0
 10 34  1  0
 12 13  1  0
 12 24  1  0
 13 14  1  0
 13 18  2  0
 14 15  2  0
 14 23  1  0
 15 16  1  0
 15 35  1  0
 16 17  2  0
 16 36  1  0
 17 18  1  0
 17 19  1  0
 19 20  1  0
 19 21  1  0
 19 22  1  0
 23 24  2  0
 24 25  1  0
 25 26  1  0
 25 27  1  0
 25 28  1  0
M  END
>  <group_name>  (1) 
JNS

>  <molecule_index>  (1) 
01548

>  <conformer_index>  (1) 
08

>  <method>  (1) 
openff-1.3.0

>  <basis>  (1) 
smirnoff

>  <program>  (1) 
openmm

>  <initial_energy>  (1) 
135.29925867289361 kilocalorie / mole

>  <final_energy>  (1) 
123.26512908397925 kilocalorie / mole

$$$$
