JNS-01594-02
     RDKit          3D

 39 42  0  0  0  0  0  0  0  0999 V2000
   -0.2504   -1.1990    1.5346 C   0  0  0  0  0  0  0  0  0  0  0  0
   -0.0590   -0.2147    0.3718 C   0  0  0  0  0  0  0  0  0  0  0  0
   -0.7539   -0.7515   -0.8871 C   0  0  0  0  0  0  0  0  0  0  0  0
    1.4198    0.0200    0.1049 C   0  0  0  0  0  0  0  0  0  0  0  0
    2.2350   -0.9868   -0.1225 N   0  0  0  0  0  0  0  0  0  0  0  0
    3.4941   -0.4173   -0.2078 C   0  0  0  0  0  0  0  0  0  0  0  0
    3.4447    0.9506   -0.0326 C   0  0  0  0  0  0  0  0  0  0  0  0
    4.5266    1.7526   -0.0702 N   0  0  0  0  0  0  0  0  0  0  0  0
    5.7396    1.1681   -0.2851 C   0  0  0  0  0  0  0  0  0  0  0  0
    5.8406   -0.2367   -0.4659 C   0  0  0  0  0  0  0  0  0  0  0  0
    4.7043   -1.0470   -0.4284 C   0  0  0  0  0  0  0  0  0  0  0  0
    6.9998    2.0479   -0.3287 C   0  0  0  0  0  0  0  0  0  0  0  0
    7.1715    2.6905    0.8640 F   0  0  0  0  0  0  0  0  0  0  0  0
    8.1333    1.3212   -0.5660 F   0  0  0  0  0  0  0  0  0  0  0  0
    6.8998    2.9791   -1.3224 F   0  0  0  0  0  0  0  0  0  0  0  0
    2.1058    1.2473    0.1366 N   0  0  0  0  0  0  0  0  0  0  0  0
    1.5660    2.5442    0.2454 C   0  0  0  0  0  0  0  0  0  0  0  0
    0.3866    2.9082   -0.4354 C   0  0  0  0  0  0  0  0  0  0  0  0
   -0.1184    4.2045   -0.3040 C   0  0  0  0  0  0  0  0  0  0  0  0
    0.5241    5.1363    0.4677 C   0  0  0  0  0  0  0  0  0  0  0  0
   -0.2314    6.2923    0.3710 N   0  0  0  0  0  0  0  0  0  0  0  0
   -1.3212    6.1206   -0.4334 N   0  0  0  0  0  0  0  0  0  0  0  0
   -1.2747    4.8781   -0.8541 C   0  0  0  0  0  0  0  0  0  0  0  0
    1.7060    4.8251    1.1433 C   0  0  0  0  0  0  0  0  0  0  0  0
    2.6052    6.1345    2.2102 Br  0  0  0  0  0  0  0  0  0  0  0  0
    2.2219    3.5258    1.0204 C   0  0  0  0  0  0  0  0  0  0  0  0
    0.1798   -2.1767    1.2933 H   0  0  0  0  0  0  0  0  0  0  0  0
    0.2399   -0.8176    2.4359 H   0  0  0  0  0  0  0  0  0  0  0  0
   -1.3149   -1.3321    1.7509 H   0  0  0  0  0  0  0  0  0  0  0  0
   -0.5330    0.7244    0.6644 H   0  0  0  0  0  0  0  0  0  0  0  0
   -1.8242   -0.8879   -0.7034 H   0  0  0  0  0  0  0  0  0  0  0  0
   -0.6316   -0.0533   -1.7204 H   0  0  0  0  0  0  0  0  0  0  0  0
   -0.3256   -1.7155   -1.1815 H   0  0  0  0  0  0  0  0  0  0  0  0
    6.8056   -0.7032   -0.6369 H   0  0  0  0  0  0  0  0  0  0  0  0
    4.7470   -2.1240   -0.5634 H   0  0  0  0  0  0  0  0  0  0  0  0
   -0.1247    2.2049   -1.0835 H   0  0  0  0  0  0  0  0  0  0  0  0
    0.0174    7.1650    0.8394 H   0  0  0  0  0  0  0  0  0  0  0  0
   -2.0023    4.4219   -1.5189 H   0  0  0  0  0  0  0  0  0  0  0  0
    3.1417    3.2802    1.5438 H   0  0  0  0  0  0  0  0  0  0  0  0
  1  2  1  0
  1 27  1  0
  1 28  1  0
  1 29  1  0
  2  3  1  0
  2  4  1  0
  2 30  1  0
  3 31  1  0
  3 32  1  0
  3 33  1  0
  4  5  2  0
  4 16  1  0
  5  6  1  0
  6  7  2  0
  6 11  1  0
  7  8  1  0
  7 16  1  0
  8  9  2  0
  9 10  1  0
  9 12  1  0
 10 11  2  0
 10 34  1  0
 11 35  1  0
 12 13  1  0
 12 14  1  0
 12 15  1  0
 16 17  1  0
 17 18  2  0
 17 26  1  0
 18 19  1  0
 18 36  1  0
 19 20  2  0
 19 23  1  0
 20 21  1  0
 20 24  1  0
 21 22  1  0
 21 37  1  0
 22 23  2  0
 23 38  1  0
 24 25  1  0
 24 26  2  0
 26 39  1  0
M  END
>  <group_name>  (1) 
JNS

>  <molecule_index>  (1) 
01594

>  <conformer_index>  (1) 
02

>  <method>  (1) 
openff-1.3.0

>  <basis>  (1) 
smirnoff

>  <program>  (1) 
openmm

>  <initial_energy>  (1) 
158.42688285914846 kilocalorie / mole

>  <final_energy>  (1) 
147.02249135211116 kilocalorie / mole

$$$$
