JNS-00617-09
     RDKit          3D

 44 48  0  0  0  0  0  0  0  0999 V2000
   -0.3522   -4.8323    0.6139 F   0  0  0  0  0  0  0  0  0  0  0  0
   -1.6496   -4.4880    0.3537 C   0  0  0  0  0  0  0  0  0  0  0  0
   -2.4058   -4.8746    1.4242 F   0  0  0  0  0  0  0  0  0  0  0  0
   -2.0694   -5.1974   -0.7355 F   0  0  0  0  0  0  0  0  0  0  0  0
   -1.8335   -2.9876    0.1007 C   0  0  0  0  0  0  0  0  0  0  0  0
   -0.7567   -2.1529    0.0717 N   0  0  0  0  0  0  0  0  0  0  0  0
   -0.9891   -0.8438   -0.1460 C   0  0  0  0  0  0  0  0  0  0  0  0
   -0.1082    0.2011   -0.2380 C   0  0  0  0  0  0  0  0  0  0  0  0
   -0.9193    1.3212   -0.4565 N   0  0  0  0  0  0  0  0  0  0  0  0
   -0.4950    2.7271   -0.3912 C   0  0  0  0  0  0  0  0  0  0  0  0
    0.0593    3.0992    0.9914 C   0  0  0  0  0  0  0  0  0  0  0  0
    0.2997    4.5903    1.2215 C   0  0  0  0  0  0  0  0  0  0  0  0
   -0.6139    4.5531    2.4404 C   0  0  0  0  0  0  0  0  0  0  0  0
   -0.9549    3.1002    2.1357 C   0  0  0  0  0  0  0  0  0  0  0  0
   -2.2344    0.9794   -0.5279 N   0  0  0  0  0  0  0  0  0  0  0  0
   -2.2542   -0.3117   -0.3371 C   0  0  0  0  0  0  0  0  0  0  0  0
   -3.3687   -1.1322   -0.3139 C   0  0  0  0  0  0  0  0  0  0  0  0
   -3.1448   -2.4899   -0.0905 C   0  0  0  0  0  0  0  0  0  0  0  0
    1.3586    0.1309   -0.1104 C   0  0  0  0  0  0  0  0  0  0  0  0
    1.9523   -0.7474    0.8216 C   0  0  0  0  0  0  0  0  0  0  0  0
    3.3468   -0.8160    0.9655 C   0  0  0  0  0  0  0  0  0  0  0  0
    4.1456    0.0038    0.1689 C   0  0  0  0  0  0  0  0  0  0  0  0
    5.4986    0.1979    0.0362 N   0  0  0  0  0  0  0  0  0  0  0  0
    5.6852    1.1557   -0.9460 C   0  0  0  0  0  0  0  0  0  0  0  0
    6.8872    1.6224   -1.3701 O   0  0  0  0  0  0  0  0  0  0  0  0
    4.5523    1.5734   -1.4337 N   0  0  0  0  0  0  0  0  0  0  0  0
    3.5784    0.8592   -0.7504 C   0  0  0  0  0  0  0  0  0  0  0  0
    2.1983    0.9278   -0.9133 C   0  0  0  0  0  0  0  0  0  0  0  0
    0.2480    2.9332   -1.1640 H   0  0  0  0  0  0  0  0  0  0  0  0
   -1.3587    3.3616   -0.6121 H   0  0  0  0  0  0  0  0  0  0  0  0
    0.9488    2.5109    1.2411 H   0  0  0  0  0  0  0  0  0  0  0  0
    1.3403    4.8436    1.4500 H   0  0  0  0  0  0  0  0  0  0  0  0
   -0.0720    5.2357    0.4185 H   0  0  0  0  0  0  0  0  0  0  0  0
   -0.0852    4.6896    3.3895 H   0  0  0  0  0  0  0  0  0  0  0  0
   -1.4682    5.2354    2.3816 H   0  0  0  0  0  0  0  0  0  0  0  0
   -1.9931    2.9539    1.8180 H   0  0  0  0  0  0  0  0  0  0  0  0
   -0.7138    2.4028    2.9447 H   0  0  0  0  0  0  0  0  0  0  0  0
   -4.3660   -0.7278   -0.4642 H   0  0  0  0  0  0  0  0  0  0  0  0
   -3.9860   -3.1752   -0.0630 H   0  0  0  0  0  0  0  0  0  0  0  0
    1.3253   -1.3823    1.4420 H   0  0  0  0  0  0  0  0  0  0  0  0
    3.7890   -1.4992    1.6840 H   0  0  0  0  0  0  0  0  0  0  0  0
    6.2243   -0.2858    0.5508 H   0  0  0  0  0  0  0  0  0  0  0  0
    7.5936    1.1674   -0.8996 H   0  0  0  0  0  0  0  0  0  0  0  0
    1.8124    1.5870   -1.6805 H   0  0  0  0  0  0  0  0  0  0  0  0
  1  2  1  0
  2  3  1  0
  2  4  1  0
  2  5  1  0
  5  6  2  0
  5 18  1  0
  6  7  1  0
  7  8  2  0
  7 16  1  0
  8  9  1  0
  8 19  1  0
  9 10  1  0
  9 15  1  0
 10 11  1  0
 10 29  1  0
 10 30  1  0
 11 12  1  0
 11 14  1  0
 11 31  1  0
 12 13  1  0
 12 32  1  0
 12 33  1  0
 13 14  1  0
 13 34  1  0
 13 35  1  0
 14 36  1  0
 14 37  1  0
 15 16  2  0
 16 17  1  0
 17 18  2  0
 17 38  1  0
 18 39  1  0
 19 20  2  0
 19 28  1  0
 20 21  1  0
 20 40  1  0
 21 22  2  0
 21 41  1  0
 22 23  1  0
 22 27  1  0
 23 24  1  0
 23 42  1  0
 24 25  1  0
 24 26  2  0
 25 43  1  0
 26 27  1  0
 27 28  2  0
 28 44  1  0
M  END
>  <group_name>  (1) 
JNS

>  <molecule_index>  (1) 
00617

>  <conformer_index>  (1) 
09

>  <method>  (1) 
openff-1.3.0

>  <basis>  (1) 
smirnoff

>  <program>  (1) 
openmm

>  <initial_energy>  (1) 
123.10908598023632 kilocalorie / mole

>  <final_energy>  (1) 
108.65322813528503 kilocalorie / mole

$$$$
