JNS-01548-00
     RDKit          3D

 36 39  0  0  0  0  0  0  0  0999 V2000
   -2.8004   -2.5647    0.3364 C   0  0  0  0  0  0  0  0  0  0  0  0
   -2.0856   -1.2477    0.1578 C   0  0  0  0  0  0  0  0  0  0  0  0
   -0.6819   -1.1966    0.0906 C   0  0  0  0  0  0  0  0  0  0  0  0
    0.0106    0.0225   -0.0729 C   0  0  0  0  0  0  0  0  0  0  0  0
   -0.7412    1.2114   -0.1444 C   0  0  0  0  0  0  0  0  0  0  0  0
   -2.1339    1.1565   -0.0817 C   0  0  0  0  0  0  0  0  0  0  0  0
   -2.8031   -0.0476    0.0647 C   0  0  0  0  0  0  0  0  0  0  0  0
   -4.1930    0.0427    0.1170 N   0  0  0  0  0  0  0  0  0  0  0  0
   -4.5412    1.2929    0.0152 C   0  0  0  0  0  0  0  0  0  0  0  0
   -5.8687    1.5334    0.0514 O   0  0  0  0  0  0  0  0  0  0  0  0
   -3.2546    2.4922   -0.1543 S   0  0  0  0  0  0  0  0  0  0  0  0
    1.4191    0.0382   -0.1260 N   0  0  0  0  0  0  0  0  0  0  0  0
    2.2460   -0.6915    0.7091 C   0  0  0  0  0  0  0  0  0  0  0  0
    3.5209   -0.2397    0.4429 C   0  0  0  0  0  0  0  0  0  0  0  0
    4.6030   -0.7513    1.1354 C   0  0  0  0  0  0  0  0  0  0  0  0
    4.3306   -1.7249    2.0973 C   0  0  0  0  0  0  0  0  0  0  0  0
    3.0034   -2.1552    2.3392 C   0  0  0  0  0  0  0  0  0  0  0  0
    1.9617   -1.6277    1.6361 N   0  0  0  0  0  0  0  0  0  0  0  0
    2.7633   -3.2334    3.4037 C   0  0  0  0  0  0  0  0  0  0  0  0
    3.5137   -4.3382    3.1176 F   0  0  0  0  0  0  0  0  0  0  0  0
    3.1482   -2.7648    4.6270 F   0  0  0  0  0  0  0  0  0  0  0  0
    1.4552   -3.6206    3.4828 F   0  0  0  0  0  0  0  0  0  0  0  0
    3.5206    0.7204   -0.5531 N   0  0  0  0  0  0  0  0  0  0  0  0
    2.2552    0.8667   -0.9091 C   0  0  0  0  0  0  0  0  0  0  0  0
    1.8448    1.7653   -2.0828 C   0  0  0  0  0  0  0  0  0  0  0  0
    2.8203    1.8107   -3.0377 F   0  0  0  0  0  0  0  0  0  0  0  0
    0.7103    1.3229   -2.6994 F   0  0  0  0  0  0  0  0  0  0  0  0
    1.6305    3.0390   -1.6400 F   0  0  0  0  0  0  0  0  0  0  0  0
   -3.4277   -2.7686   -0.5364 H   0  0  0  0  0  0  0  0  0  0  0  0
   -2.0887   -3.3865    0.4570 H   0  0  0  0  0  0  0  0  0  0  0  0
   -3.4376   -2.5252    1.2250 H   0  0  0  0  0  0  0  0  0  0  0  0
   -0.1240   -2.1258    0.1595 H   0  0  0  0  0  0  0  0  0  0  0  0
   -0.2663    2.1830   -0.2238 H   0  0  0  0  0  0  0  0  0  0  0  0
   -6.2664    0.6553    0.1528 H   0  0  0  0  0  0  0  0  0  0  0  0
    5.6092   -0.3986    0.9252 H   0  0  0  0  0  0  0  0  0  0  0  0
    5.1458   -2.1591    2.6688 H   0  0  0  0  0  0  0  0  0  0  0  0
  1  2  1  0
  1 29  1  0
  1 30  1  0
  1 31  1  0
  2  3  2  0
  2  7  1  0
  3  4  1  0
  3 32  1  0
  4  5  2  0
  4 12  1  0
  5  6  1  0
  5 33  1  0
  6  7  2  0
  6 11  1  0
  7  8  1  0
  8  9  2  0
  9 10  1  0
  9 11  1  0
 10 34  1  0
 12 13  1  0
 12 24  1  0
 13 14  1  0
 13 18  2  0
 14 15  2  0
 14 23  1  0
 15 16  1  0
 15 35  1  0
 16 17  2  0
 16 36  1  0
 17 18  1  0
 17 19  1  0
 19 20  1  0
 19 21  1  0
 19 22  1  0
 23 24  2  0
 24 25  1  0
 25 26  1  0
 25 27  1  0
 25 28  1  0
M  END
>  <group_name>  (1) 
JNS

>  <molecule_index>  (1) 
01548

>  <conformer_index>  (1) 
00

>  <method>  (1) 
openff-1.3.0

>  <basis>  (1) 
smirnoff

>  <program>  (1) 
openmm

>  <initial_energy>  (1) 
135.49080463552073 kilocalorie / mole

>  <final_energy>  (1) 
123.20291089370278 kilocalorie / mole

$$$$
