JNS-01581-05
     RDKit          3D

 40 44  0  0  0  0  0  0  0  0999 V2000
   -0.7104   -1.0510    0.4947 F   0  0  0  0  0  0  0  0  0  0  0  0
   -0.1054   -0.1482   -0.3337 C   0  0  0  0  0  0  0  0  0  0  0  0
   -0.6872    1.0714   -0.1350 F   0  0  0  0  0  0  0  0  0  0  0  0
   -0.3504   -0.5275   -1.6229 F   0  0  0  0  0  0  0  0  0  0  0  0
    1.4078   -0.0427   -0.1039 C   0  0  0  0  0  0  0  0  0  0  0  0
    2.0172   -0.7704    0.8747 N   0  0  0  0  0  0  0  0  0  0  0  0
    3.3508   -0.6320    1.0129 C   0  0  0  0  0  0  0  0  0  0  0  0
    4.1221    0.2055    0.2311 C   0  0  0  0  0  0  0  0  0  0  0  0
    3.5380    0.9585   -0.7705 C   0  0  0  0  0  0  0  0  0  0  0  0
    2.1584    0.8256   -0.9342 C   0  0  0  0  0  0  0  0  0  0  0  0
    5.4574    0.1539    0.5935 N   0  0  0  0  0  0  0  0  0  0  0  0
    5.5068   -0.7098    1.5837 C   0  0  0  0  0  0  0  0  0  0  0  0
    6.8261   -1.1387    2.2032 C   0  0  0  0  0  0  0  0  0  0  0  0
    7.6047   -0.0241    2.9075 C   0  0  0  0  0  0  0  0  0  0  0  0
    8.7257   -0.1440    1.8832 C   0  0  0  0  0  0  0  0  0  0  0  0
    8.0003   -1.3142    1.2323 C   0  0  0  0  0  0  0  0  0  0  0  0
    4.2320   -1.1990    1.9136 N   0  0  0  0  0  0  0  0  0  0  0  0
    3.8746   -2.0056    3.0118 C   0  0  0  0  0  0  0  0  0  0  0  0
    4.4885   -1.8407    4.2709 C   0  0  0  0  0  0  0  0  0  0  0  0
    4.1104   -2.6581    5.3400 C   0  0  0  0  0  0  0  0  0  0  0  0
    3.1393   -3.6115    5.1854 C   0  0  0  0  0  0  0  0  0  0  0  0
    3.0083   -4.2260    6.4183 N   0  0  0  0  0  0  0  0  0  0  0  0
    3.8602   -3.6915    7.3418 N   0  0  0  0  0  0  0  0  0  0  0  0
    4.5297   -2.7472    6.7222 C   0  0  0  0  0  0  0  0  0  0  0  0
    2.4928   -3.7961    3.9632 C   0  0  0  0  0  0  0  0  0  0  0  0
    1.2524   -5.0075    3.7837 Cl  0  0  0  0  0  0  0  0  0  0  0  0
    2.8643   -2.9839    2.8823 C   0  0  0  0  0  0  0  0  0  0  0  0
    4.1423    1.6158   -1.3893 H   0  0  0  0  0  0  0  0  0  0  0  0
    1.6516    1.3953   -1.7074 H   0  0  0  0  0  0  0  0  0  0  0  0
    6.7056   -2.0266    2.8290 H   0  0  0  0  0  0  0  0  0  0  0  0
    7.9149   -0.2795    3.9259 H   0  0  0  0  0  0  0  0  0  0  0  0
    7.1061    0.9515    2.9016 H   0  0  0  0  0  0  0  0  0  0  0  0
    9.6997   -0.4022    2.3110 H   0  0  0  0  0  0  0  0  0  0  0  0
    8.8175    0.7305    1.2304 H   0  0  0  0  0  0  0  0  0  0  0  0
    8.5234   -2.2691    1.3477 H   0  0  0  0  0  0  0  0  0  0  0  0
    7.7572   -1.1547    0.1762 H   0  0  0  0  0  0  0  0  0  0  0  0
    5.2345   -1.0698    4.4332 H   0  0  0  0  0  0  0  0  0  0  0  0
    2.3415   -4.9771    6.6041 H   0  0  0  0  0  0  0  0  0  0  0  0
    5.2906   -2.1238    7.1824 H   0  0  0  0  0  0  0  0  0  0  0  0
    2.3597   -3.1293    1.9317 H   0  0  0  0  0  0  0  0  0  0  0  0
  1  2  1  0
  2  3  1  0
  2  4  1  0
  2  5  1  0
  5  6  2  0
  5 10  1  0
  6  7  1  0
  7  8  2  0
  7 17  1  0
  8  9  1  0
  8 11  1  0
  9 10  2  0
  9 28  1  0
 10 29  1  0
 11 12  2  0
 12 13  1  0
 12 17  1  0
 13 14  1  0
 13 16  1  0
 13 30  1  0
 14 15  1  0
 14 31  1  0
 14 32  1  0
 15 16  1  0
 15 33  1  0
 15 34  1  0
 16 35  1  0
 16 36  1  0
 17 18  1  0
 18 19  2  0
 18 27  1  0
 19 20  1  0
 19 37  1  0
 20 21  2  0
 20 24  1  0
 21 22  1  0
 21 25  1  0
 22 23  1  0
 22 38  1  0
 23 24  2  0
 24 39  1  0
 25 26  1  0
 25 27  2  0
 27 40  1  0
M  END
>  <group_name>  (1) 
JNS

>  <molecule_index>  (1) 
01581

>  <conformer_index>  (1) 
05

>  <method>  (1) 
openff-1.3.0

>  <basis>  (1) 
smirnoff

>  <program>  (1) 
openmm

>  <initial_energy>  (1) 
192.22137590908355 kilocalorie / mole

>  <final_energy>  (1) 
179.7199783438664 kilocalorie / mole

$$$$
