JNS-01558-01
     RDKit          3D

 42 46  0  0  0  0  0  0  0  0999 V2000
   -0.4359    0.6078    1.5215 F   0  0  0  0  0  0  0  0  0  0  0  0
    0.1570    0.9440    0.3365 C   0  0  0  0  0  0  0  0  0  0  0  0
   -0.5369    0.3407   -0.6736 F   0  0  0  0  0  0  0  0  0  0  0  0
    0.0403    2.2960    0.1780 F   0  0  0  0  0  0  0  0  0  0  0  0
    1.6331    0.5378    0.2669 C   0  0  0  0  0  0  0  0  0  0  0  0
    2.2150   -0.1412    1.2954 N   0  0  0  0  0  0  0  0  0  0  0  0
    3.5195   -0.4565    1.1753 C   0  0  0  0  0  0  0  0  0  0  0  0
    4.3357   -1.1507    2.0282 C   0  0  0  0  0  0  0  0  0  0  0  0
    5.5850   -1.1689    1.3887 N   0  0  0  0  0  0  0  0  0  0  0  0
    5.5104   -0.5771    0.1614 N   0  0  0  0  0  0  0  0  0  0  0  0
    4.2835   -0.1431    0.0644 C   0  0  0  0  0  0  0  0  0  0  0  0
    3.7231    0.5438   -0.9991 C   0  0  0  0  0  0  0  0  0  0  0  0
    2.3769    0.8880   -0.8853 C   0  0  0  0  0  0  0  0  0  0  0  0
    6.8167   -1.5760    1.9424 C   0  0  0  0  0  0  0  0  0  0  0  0
    7.8558   -2.0114    1.0965 C   0  0  0  0  0  0  0  0  0  0  0  0
    9.0898   -2.4169    1.6186 C   0  0  0  0  0  0  0  0  0  0  0  0
    9.3124   -2.3824    2.9971 C   0  0  0  0  0  0  0  0  0  0  0  0
    8.3032   -1.9317    3.8513 C   0  0  0  0  0  0  0  0  0  0  0  0
    7.0697   -1.5253    3.3291 C   0  0  0  0  0  0  0  0  0  0  0  0
    3.9175   -1.8004    3.2836 C   0  0  0  0  0  0  0  0  0  0  0  0
    3.0177   -1.1595    4.1598 C   0  0  0  0  0  0  0  0  0  0  0  0
    2.6168   -1.7750    5.3544 C   0  0  0  0  0  0  0  0  0  0  0  0
    3.1186   -3.0341    5.6671 C   0  0  0  0  0  0  0  0  0  0  0  0
    2.8658   -3.8259    6.7678 N   0  0  0  0  0  0  0  0  0  0  0  0
    3.4764   -5.0326    6.5838 C   0  0  0  0  0  0  0  0  0  0  0  0
    3.2110   -6.0022    7.2807 O   0  0  0  0  0  0  0  0  0  0  0  0
    4.3465   -5.0530    5.3325 C   0  0  0  0  0  0  0  0  0  0  0  0
    3.9884   -3.6856    4.8097 C   0  0  0  0  0  0  0  0  0  0  0  0
    4.3897   -3.0860    3.6129 C   0  0  0  0  0  0  0  0  0  0  0  0
    4.3118    0.7958   -1.8770 H   0  0  0  0  0  0  0  0  0  0  0  0
    1.8906    1.4283   -1.6914 H   0  0  0  0  0  0  0  0  0  0  0  0
    7.7041   -2.0442    0.0205 H   0  0  0  0  0  0  0  0  0  0  0  0
    9.8764   -2.7562    0.9498 H   0  0  0  0  0  0  0  0  0  0  0  0
   10.2712   -2.6949    3.4025 H   0  0  0  0  0  0  0  0  0  0  0  0
    8.4798   -1.8863    4.9228 H   0  0  0  0  0  0  0  0  0  0  0  0
    6.3217   -1.1464    4.0195 H   0  0  0  0  0  0  0  0  0  0  0  0
    2.6264   -0.1757    3.9125 H   0  0  0  0  0  0  0  0  0  0  0  0
    1.9245   -1.2738    6.0238 H   0  0  0  0  0  0  0  0  0  0  0  0
    1.9860   -3.8022    7.2714 H   0  0  0  0  0  0  0  0  0  0  0  0
    4.0375   -5.8514    4.6538 H   0  0  0  0  0  0  0  0  0  0  0  0
    5.4042   -5.1297    5.5936 H   0  0  0  0  0  0  0  0  0  0  0  0
    5.0552   -3.6179    2.9387 H   0  0  0  0  0  0  0  0  0  0  0  0
  1  2  1  0
  2  3  1  0
  2  4  1  0
  2  5  1  0
  5  6  2  0
  5 13  1  0
  6  7  1  0
  7  8  2  0
  7 11  1  0
  8  9  1  0
  8 20  1  0
  9 10  1  0
  9 14  1  0
 10 11  2  0
 11 12  1  0
 12 13  2  0
 12 30  1  0
 13 31  1  0
 14 15  2  0
 14 19  1  0
 15 16  1  0
 15 32  1  0
 16 17  2  0
 16 33  1  0
 17 18  1  0
 17 34  1  0
 18 19  2  0
 18 35  1  0
 19 36  1  0
 20 21  2  0
 20 29  1  0
 21 22  1  0
 21 37  1  0
 22 23  2  0
 22 38  1  0
 23 24  1  0
 23 28  1  0
 24 25  1  0
 24 39  1  0
 25 26  2  0
 25 27  1  0
 27 28  1  0
 27 40  1  0
 27 41  1  0
 28 29  2  0
 29 42  1  0
M  END
>  <group_name>  (1) 
JNS

>  <molecule_index>  (1) 
01558

>  <conformer_index>  (1) 
01

>  <method>  (1) 
openff-1.3.0

>  <basis>  (1) 
smirnoff

>  <program>  (1) 
openmm

>  <initial_energy>  (1) 
131.8945211442696 kilocalorie / mole

>  <final_energy>  (1) 
118.76957444033765 kilocalorie / mole

$$$$
