JNS-02240-02
     RDKit          3D

 51 55  0  0  0  0  0  0  0  0999 V2000
    1.5012    5.2970    4.3458 C   0  0  0  0  0  0  0  0  0  0  0  0
    0.5195    4.4431    3.6079 C   0  0  0  0  0  0  0  0  0  0  0  0
   -0.6334    4.1558    4.2156 N   0  0  0  0  0  0  0  0  0  0  0  0
   -1.5504    3.4191    3.5679 C   0  0  0  0  0  0  0  0  0  0  0  0
   -2.7980    3.1067    4.3176 C   0  0  0  0  0  0  0  0  0  0  0  0
   -4.0266    3.1602    3.7291 N   0  0  0  0  0  0  0  0  0  0  0  0
   -5.0706    2.8884    4.5397 C   0  0  0  0  0  0  0  0  0  0  0  0
   -4.9169    2.5701    5.9039 C   0  0  0  0  0  0  0  0  0  0  0  0
   -3.7145    2.5164    6.5090 N   0  0  0  0  0  0  0  0  0  0  0  0
   -2.6688    2.7977    5.6983 C   0  0  0  0  0  0  0  0  0  0  0  0
   -1.2745    2.9528    2.2671 C   0  0  0  0  0  0  0  0  0  0  0  0
   -2.2330    2.0484    1.4763 C   0  0  0  0  0  0  0  0  0  0  0  0
   -1.8771    1.9946   -0.0160 C   0  0  1  0  0  0  0  0  0  0  0  0
   -2.1629    3.3701   -0.6801 C   0  0  0  0  0  0  0  0  0  0  0  0
   -0.9918    3.8695   -1.5373 C   0  0  0  0  0  0  0  0  0  0  0  0
    0.3511    3.8356   -0.7730 C   0  0  0  0  0  0  0  0  0  0  0  0
    0.4129    2.7724    0.3465 C   0  0  2  0  0  0  0  0  0  0  0  0
   -0.4542    1.6654   -0.0548 N   0  0  0  0  0  0  0  0  0  0  0  0
    0.0075    0.4067   -0.4153 C   0  0  0  0  0  0  0  0  0  0  0  0
   -0.7803   -0.4139   -0.8778 O   0  0  0  0  0  0  0  0  0  0  0  0
    1.4262    0.0301   -0.3364 C   0  0  0  0  0  0  0  0  0  0  0  0
    2.1309   -0.2643   -1.5032 C   0  0  0  0  0  0  0  0  0  0  0  0
    3.4743   -0.6162   -1.4398 C   0  0  0  0  0  0  0  0  0  0  0  0
    4.1502   -0.6922   -0.2829 N   0  0  0  0  0  0  0  0  0  0  0  0
    3.4912   -0.4423    0.8852 C   0  0  0  0  0  0  0  0  0  0  0  0
    2.1126   -0.0866    0.8860 C   0  0  0  0  0  0  0  0  0  0  0  0
    1.2379    0.1686    2.3891 Cl  0  0  0  0  0  0  0  0  0  0  0  0
    4.2609   -0.5490    2.2123 C   0  0  0  0  0  0  0  0  0  0  0  0
    5.5782   -0.8632    2.0273 F   0  0  0  0  0  0  0  0  0  0  0  0
    4.2276    0.6413    2.8819 F   0  0  0  0  0  0  0  0  0  0  0  0
    3.7242   -1.5244    3.0034 F   0  0  0  0  0  0  0  0  0  0  0  0
   -0.0352    3.3093    1.7043 C   0  0  0  0  0  0  0  0  0  0  0  0
    0.8454    4.0492    2.3780 N   0  0  0  0  0  0  0  0  0  0  0  0
    2.0639    5.9169    3.6428 H   0  0  0  0  0  0  0  0  0  0  0  0
    2.1969    4.6591    4.8961 H   0  0  0  0  0  0  0  0  0  0  0  0
    0.9795    5.9497    5.0508 H   0  0  0  0  0  0  0  0  0  0  0  0
   -6.0731    2.9145    4.1239 H   0  0  0  0  0  0  0  0  0  0  0  0
   -5.8056    2.3604    6.4912 H   0  0  0  0  0  0  0  0  0  0  0  0
   -1.6780    2.7707    6.1422 H   0  0  0  0  0  0  0  0  0  0  0  0
   -2.1938    1.0373    1.8948 H   0  0  0  0  0  0  0  0  0  0  0  0
   -3.2658    2.3934    1.5434 H   0  0  0  0  0  0  0  0  0  0  0  0
   -2.4820    1.2306   -0.5184 H   0  0  0  0  0  0  0  0  0  0  0  0
   -3.0660    3.2942   -1.2935 H   0  0  0  0  0  0  0  0  0  0  0  0
   -2.3671    4.1305    0.0811 H   0  0  0  0  0  0  0  0  0  0  0  0
   -1.1916    4.8833   -1.8986 H   0  0  0  0  0  0  0  0  0  0  0  0
   -0.9115    3.2202   -2.4157 H   0  0  0  0  0  0  0  0  0  0  0  0
    0.5714    4.8211   -0.3495 H   0  0  0  0  0  0  0  0  0  0  0  0
    1.1391    3.6222   -1.5018 H   0  0  0  0  0  0  0  0  0  0  0  0
    1.4542    2.4602    0.4594 H   0  0  0  0  0  0  0  0  0  0  0  0
    1.6346   -0.2233   -2.4684 H   0  0  0  0  0  0  0  0  0  0  0  0
    4.0014   -0.8354   -2.3639 H   0  0  0  0  0  0  0  0  0  0  0  0
  1  2  1  0
  1 34  1  0
  1 35  1  0
  1 36  1  0
  2  3  2  0
  2 33  1  0
  3  4  1  0
  4  5  1  0
  4 11  2  0
  5  6  2  0
  5 10  1  0
  6  7  1  0
  7  8  2  0
  7 37  1  0
  8  9  1  0
  8 38  1  0
  9 10  2  0
 10 39  1  0
 11 12  1  0
 11 32  1  0
 12 13  1  0
 12 40  1  0
 12 41  1  0
 13 14  1  0
 13 18  1  0
 13 42  1  6
 14 15  1  0
 14 43  1  0
 14 44  1  0
 15 16  1  0
 15 45  1  0
 15 46  1  0
 16 17  1  0
 16 47  1  0
 16 48  1  0
 17 18  1  0
 17 32  1  0
 17 49  1  1
 18 19  1  0
 19 20  2  0
 19 21  1  0
 21 22  2  0
 21 26  1  0
 22 23  1  0
 22 50  1  0
 23 24  2  0
 23 51  1  0
 24 25  1  0
 25 26  2  0
 25 28  1  0
 26 27  1  0
 28 29  1  0
 28 30  1  0
 28 31  1  0
 32 33  2  0
M  END
>  <group_name>  (1) 
JNS

>  <molecule_index>  (1) 
02240

>  <conformer_index>  (1) 
02

>  <method>  (1) 
openff-1.3.0

>  <basis>  (1) 
smirnoff

>  <program>  (1) 
openmm

>  <initial_energy>  (1) 
144.4755152140286 kilocalorie / mole

>  <final_energy>  (1) 
130.8309808073657 kilocalorie / mole

$$$$
