JNS-01554-03
     RDKit          3D

 35 38  0  0  0  0  0  0  0  0999 V2000
   -0.3191   -0.6894    1.7241 F   0  0  0  0  0  0  0  0  0  0  0  0
   -0.0731   -0.1022    0.5170 C   0  0  0  0  0  0  0  0  0  0  0  0
   -0.8233   -0.7228   -0.4388 F   0  0  0  0  0  0  0  0  0  0  0  0
    1.3519   -0.1547    0.1568 N   0  0  0  0  0  0  0  0  0  0  0  0
    2.2251   -1.0874    0.6363 N   0  0  0  0  0  0  0  0  0  0  0  0
    3.4080   -0.6330    0.3192 C   0  0  0  0  0  0  0  0  0  0  0  0
    4.6311   -1.2211    0.5925 C   0  0  0  0  0  0  0  0  0  0  0  0
    5.7676   -0.5427    0.1519 C   0  0  0  0  0  0  0  0  0  0  0  0
    5.6574    0.6878   -0.5404 C   0  0  0  0  0  0  0  0  0  0  0  0
    4.4374    1.2413   -0.7943 N   0  0  0  0  0  0  0  0  0  0  0  0
    3.3523    0.5715   -0.3620 C   0  0  0  0  0  0  0  0  0  0  0  0
    2.0266    0.8826   -0.4896 C   0  0  0  0  0  0  0  0  0  0  0  0
    1.4562    2.0654   -1.1519 C   0  0  0  0  0  0  0  0  0  0  0  0
    2.0505    3.3316   -0.9719 C   0  0  0  0  0  0  0  0  0  0  0  0
    1.5229    4.4758   -1.5868 C   0  0  0  0  0  0  0  0  0  0  0  0
    2.2682    6.0340   -1.3461 Cl  0  0  0  0  0  0  0  0  0  0  0  0
    0.3925    4.3369   -2.3940 C   0  0  0  0  0  0  0  0  0  0  0  0
   -0.2986    5.2967   -3.1076 N   0  0  0  0  0  0  0  0  0  0  0  0
   -1.2454    4.6815   -3.8724 C   0  0  0  0  0  0  0  0  0  0  0  0
   -1.8233    5.2610   -4.7806 O   0  0  0  0  0  0  0  0  0  0  0  0
   -1.3435    3.1909   -3.5701 C   0  0  0  0  0  0  0  0  0  0  0  0
   -0.1883    3.0963   -2.6045 C   0  0  0  0  0  0  0  0  0  0  0  0
    0.3352    1.9520   -1.9968 C   0  0  0  0  0  0  0  0  0  0  0  0
    6.9418    1.3885   -0.9953 C   0  0  0  0  0  0  0  0  0  0  0  0
    7.7435    1.6290    0.0843 F   0  0  0  0  0  0  0  0  0  0  0  0
    7.6272    0.5821   -1.8588 F   0  0  0  0  0  0  0  0  0  0  0  0
    6.7068    2.5810   -1.6205 F   0  0  0  0  0  0  0  0  0  0  0  0
   -0.3726    0.9471    0.5845 H   0  0  0  0  0  0  0  0  0  0  0  0
    4.6910   -2.1665    1.1254 H   0  0  0  0  0  0  0  0  0  0  0  0
    6.7506   -0.9626    0.3416 H   0  0  0  0  0  0  0  0  0  0  0  0
    2.9354    3.4343   -0.3482 H   0  0  0  0  0  0  0  0  0  0  0  0
    0.1364    6.1483   -3.4472 H   0  0  0  0  0  0  0  0  0  0  0  0
   -2.2987    2.9527   -3.0969 H   0  0  0  0  0  0  0  0  0  0  0  0
   -1.1810    2.5983   -4.4736 H   0  0  0  0  0  0  0  0  0  0  0  0
   -0.1102    0.9846   -2.2106 H   0  0  0  0  0  0  0  0  0  0  0  0
  1  2  1  0
  2  3  1  0
  2  4  1  0
  2 28  1  0
  4  5  1  0
  4 12  1  0
  5  6  2  0
  6  7  1  0
  6 11  1  0
  7  8  2  0
  7 29  1  0
  8  9  1  0
  8 30  1  0
  9 10  2  0
  9 24  1  0
 10 11  1  0
 11 12  2  0
 12 13  1  0
 13 14  2  0
 13 23  1  0
 14 15  1  0
 14 31  1  0
 15 16  1  0
 15 17  2  0
 17 18  1  0
 17 22  1  0
 18 19  1  0
 18 32  1  0
 19 20  2  0
 19 21  1  0
 21 22  1  0
 21 33  1  0
 21 34  1  0
 22 23  2  0
 23 35  1  0
 24 25  1  0
 24 26  1  0
 24 27  1  0
M  END
>  <group_name>  (1) 
JNS

>  <molecule_index>  (1) 
01554

>  <conformer_index>  (1) 
03

>  <method>  (1) 
openff-1.3.0

>  <basis>  (1) 
smirnoff

>  <program>  (1) 
openmm

>  <initial_energy>  (1) 
105.59188982451629 kilocalorie / mole

>  <final_energy>  (1) 
93.50194473993386 kilocalorie / mole

$$$$
