JNS-01494-07
     RDKit          3D

 42 45  0  0  0  0  0  0  0  0999 V2000
   -1.8413   -0.7239   -0.6994 C   0  0  0  0  0  0  0  0  0  0  0  0
   -0.4982   -0.0120   -0.5214 C   0  0  0  0  0  0  0  0  0  0  0  0
    0.3368   -0.5835    0.6453 C   0  0  2  0  0  0  0  0  0  0  0  0
   -0.3143   -0.3624    2.0198 C   0  0  0  0  0  0  0  0  0  0  0  0
    1.7851   -0.1060    0.6281 C   0  0  0  0  0  0  0  0  0  0  0  0
    2.7211   -0.9730    0.9496 N   0  0  0  0  0  0  0  0  0  0  0  0
    3.9210   -0.3256    0.7063 C   0  0  0  0  0  0  0  0  0  0  0  0
    3.7152    0.9525    0.2313 C   0  0  0  0  0  0  0  0  0  0  0  0
    4.7041    1.8030   -0.1077 N   0  0  0  0  0  0  0  0  0  0  0  0
    5.9851    1.3594    0.0366 C   0  0  0  0  0  0  0  0  0  0  0  0
    6.2496    0.0551    0.5232 C   0  0  0  0  0  0  0  0  0  0  0  0
    5.2068   -0.8083    0.8648 C   0  0  0  0  0  0  0  0  0  0  0  0
    7.1726    2.2583   -0.3319 C   0  0  0  0  0  0  0  0  0  0  0  0
    7.9593    1.6284   -1.2542 F   0  0  0  0  0  0  0  0  0  0  0  0
    6.7908    3.4611   -0.8567 F   0  0  0  0  0  0  0  0  0  0  0  0
    7.9321    2.4967    0.7779 F   0  0  0  0  0  0  0  0  0  0  0  0
    2.3469    1.1212    0.2212 N   0  0  0  0  0  0  0  0  0  0  0  0
    1.7044    2.3277   -0.0956 C   0  0  0  0  0  0  0  0  0  0  0  0
    0.7758    2.9143    0.7825 C   0  0  0  0  0  0  0  0  0  0  0  0
    0.1530    4.1154    0.4297 C   0  0  0  0  0  0  0  0  0  0  0  0
    0.4520    4.7467   -0.7488 C   0  0  0  0  0  0  0  0  0  0  0  0
   -0.3261    5.8921   -0.7709 N   0  0  0  0  0  0  0  0  0  0  0  0
   -1.0981    6.0017    0.3494 N   0  0  0  0  0  0  0  0  0  0  0  0
   -0.8262    4.9513    1.0887 C   0  0  0  0  0  0  0  0  0  0  0  0
    1.3959    4.2112   -1.6256 C   0  0  0  0  0  0  0  0  0  0  0  0
    2.0251    3.0032   -1.2903 C   0  0  0  0  0  0  0  0  0  0  0  0
   -2.3464   -0.3426   -1.5922 H   0  0  0  0  0  0  0  0  0  0  0  0
   -1.6921   -1.8014   -0.8206 H   0  0  0  0  0  0  0  0  0  0  0  0
   -2.4948   -0.5478    0.1598 H   0  0  0  0  0  0  0  0  0  0  0  0
    0.0729   -0.1227   -1.4494 H   0  0  0  0  0  0  0  0  0  0  0  0
   -0.6891    1.0537   -0.3764 H   0  0  0  0  0  0  0  0  0  0  0  0
    0.3806   -1.6676    0.4938 H   0  0  0  0  0  0  0  0  0  0  0  0
    0.3443   -0.7349    2.8112 H   0  0  0  0  0  0  0  0  0  0  0  0
   -1.2586   -0.9097    2.0899 H   0  0  0  0  0  0  0  0  0  0  0  0
   -0.5222    0.6924    2.2024 H   0  0  0  0  0  0  0  0  0  0  0  0
    7.2780   -0.2769    0.6294 H   0  0  0  0  0  0  0  0  0  0  0  0
    5.3754   -1.8151    1.2361 H   0  0  0  0  0  0  0  0  0  0  0  0
    0.5615    2.4630    1.7428 H   0  0  0  0  0  0  0  0  0  0  0  0
   -0.3077    6.5774   -1.5268 H   0  0  0  0  0  0  0  0  0  0  0  0
   -1.2744    4.7399    2.0548 H   0  0  0  0  0  0  0  0  0  0  0  0
    1.6484    4.7213   -2.5500 H   0  0  0  0  0  0  0  0  0  0  0  0
    2.7694    2.5841   -1.9620 H   0  0  0  0  0  0  0  0  0  0  0  0
  1  2  1  0
  1 27  1  0
  1 28  1  0
  1 29  1  0
  2  3  1  0
  2 30  1  0
  2 31  1  0
  3  4  1  0
  3  5  1  0
  3 32  1  6
  4 33  1  0
  4 34  1  0
  4 35  1  0
  5  6  2  0
  5 17  1  0
  6  7  1  0
  7  8  2  0
  7 12  1  0
  8  9  1  0
  8 17  1  0
  9 10  2  0
 10 11  1  0
 10 13  1  0
 11 12  2  0
 11 36  1  0
 12 37  1  0
 13 14  1  0
 13 15  1  0
 13 16  1  0
 17 18  1  0
 18 19  2  0
 18 26  1  0
 19 20  1  0
 19 38  1  0
 20 21  2  0
 20 24  1  0
 21 22  1  0
 21 25  1  0
 22 23  1  0
 22 39  1  0
 23 24  2  0
 24 40  1  0
 25 26  2  0
 25 41  1  0
 26 42  1  0
M  END
>  <group_name>  (1) 
JNS

>  <molecule_index>  (1) 
01494

>  <conformer_index>  (1) 
07

>  <method>  (1) 
openff-1.3.0

>  <basis>  (1) 
smirnoff

>  <program>  (1) 
openmm

>  <initial_energy>  (1) 
165.27047852323142 kilocalorie / mole

>  <final_energy>  (1) 
154.90882268977458 kilocalorie / mole

$$$$
