JNS-01155-08
     RDKit          3D

 46 50  0  0  0  0  0  0  0  0999 V2000
   -0.1609   -0.6477   -1.8082 F   0  0  0  0  0  0  0  0  0  0  0  0
    0.1008    0.0402   -0.6579 C   0  0  0  0  0  0  0  0  0  0  0  0
   -0.2582    1.3431   -0.8595 F   0  0  0  0  0  0  0  0  0  0  0  0
   -0.7071   -0.4427    0.3305 F   0  0  0  0  0  0  0  0  0  0  0  0
    1.5889   -0.0770   -0.3047 C   0  0  0  0  0  0  0  0  0  0  0  0
    2.4814    0.7854   -0.7547 N   0  0  0  0  0  0  0  0  0  0  0  0
    3.7021    0.4630   -0.1512 C   0  0  0  0  0  0  0  0  0  0  0  0
    3.5258   -0.6287    0.6734 C   0  0  0  0  0  0  0  0  0  0  0  0
    4.4960   -1.2136    1.3933 N   0  0  0  0  0  0  0  0  0  0  0  0
    5.7425   -0.6891    1.3126 C   0  0  0  0  0  0  0  0  0  0  0  0
    5.9911    0.4287    0.4888 C   0  0  0  0  0  0  0  0  0  0  0  0
    4.9821    1.0278   -0.2625 C   0  0  0  0  0  0  0  0  0  0  0  0
    5.2745    2.1437   -1.0746 N   0  0  0  0  0  0  0  0  0  0  0  0
    4.1995    3.0413   -1.5529 C   0  0  0  0  0  0  0  0  0  0  0  0
    4.7643    4.4203   -1.9288 C   0  0  0  0  0  0  0  0  0  0  0  0
    5.8542    4.3755   -2.8802 O   0  0  0  0  0  0  0  0  0  0  0  0
    6.6005    3.1378   -2.9211 C   0  0  0  0  0  0  0  0  0  0  0  0
    6.6437    2.4016   -1.5726 C   0  0  0  0  0  0  0  0  0  0  0  0
    6.8793   -1.3257    2.1354 C   0  0  0  0  0  0  0  0  0  0  0  0
    7.0462   -2.6366    1.7897 F   0  0  0  0  0  0  0  0  0  0  0  0
    8.0815   -0.7025    1.9429 F   0  0  0  0  0  0  0  0  0  0  0  0
    6.5967   -1.2566    3.4703 F   0  0  0  0  0  0  0  0  0  0  0  0
    2.1980   -1.0026    0.5638 N   0  0  0  0  0  0  0  0  0  0  0  0
    1.6335   -2.1677    1.1246 C   0  0  0  0  0  0  0  0  0  0  0  0
    0.7666   -2.9965    0.3814 C   0  0  0  0  0  0  0  0  0  0  0  0
    0.2295   -4.1454    0.9698 C   0  0  0  0  0  0  0  0  0  0  0  0
    0.5400   -4.4942    2.2567 C   0  0  0  0  0  0  0  0  0  0  0  0
   -0.1501   -5.6687    2.5062 N   0  0  0  0  0  0  0  0  0  0  0  0
   -0.8787   -6.0676    1.4233 N   0  0  0  0  0  0  0  0  0  0  0  0
   -0.6679   -5.1717    0.4868 C   0  0  0  0  0  0  0  0  0  0  0  0
    1.4066   -3.7101    3.0166 C   0  0  0  0  0  0  0  0  0  0  0  0
    1.9522   -2.5508    2.4462 C   0  0  0  0  0  0  0  0  0  0  0  0
    6.9907    0.8408    0.4614 H   0  0  0  0  0  0  0  0  0  0  0  0
    3.7050    2.5992   -2.4241 H   0  0  0  0  0  0  0  0  0  0  0  0
    3.4487    3.1846   -0.7693 H   0  0  0  0  0  0  0  0  0  0  0  0
    5.1165    4.9139   -1.0179 H   0  0  0  0  0  0  0  0  0  0  0  0
    3.9553    5.0313   -2.3400 H   0  0  0  0  0  0  0  0  0  0  0  0
    7.6247    3.3490   -3.2423 H   0  0  0  0  0  0  0  0  0  0  0  0
    6.1506    2.4785   -3.6701 H   0  0  0  0  0  0  0  0  0  0  0  0
    7.1964    3.0061   -0.8462 H   0  0  0  0  0  0  0  0  0  0  0  0
    7.1809    1.4590   -1.7182 H   0  0  0  0  0  0  0  0  0  0  0  0
    0.5217   -2.7768   -0.6520 H   0  0  0  0  0  0  0  0  0  0  0  0
   -0.1098   -6.1747    3.3914 H   0  0  0  0  0  0  0  0  0  0  0  0
   -1.1053   -5.1978   -0.5068 H   0  0  0  0  0  0  0  0  0  0  0  0
    1.6608   -3.9896    4.0343 H   0  0  0  0  0  0  0  0  0  0  0  0
    2.6250   -1.9423    3.0442 H   0  0  0  0  0  0  0  0  0  0  0  0
  1  2  1  0
  2  3  1  0
  2  4  1  0
  2  5  1  0
  5  6  2  0
  5 23  1  0
  6  7  1  0
  7  8  2  0
  7 12  1  0
  8  9  1  0
  8 23  1  0
  9 10  2  0
 10 11  1  0
 10 19  1  0
 11 12  2  0
 11 33  1  0
 12 13  1  0
 13 14  1  0
 13 18  1  0
 14 15  1  0
 14 34  1  0
 14 35  1  0
 15 16  1  0
 15 36  1  0
 15 37  1  0
 16 17  1  0
 17 18  1  0
 17 38  1  0
 17 39  1  0
 18 40  1  0
 18 41  1  0
 19 20  1  0
 19 21  1  0
 19 22  1  0
 23 24  1  0
 24 25  2  0
 24 32  1  0
 25 26  1  0
 25 42  1  0
 26 27  2  0
 26 30  1  0
 27 28  1  0
 27 31  1  0
 28 29  1  0
 28 43  1  0
 29 30  2  0
 30 44  1  0
 31 32  2  0
 31 45  1  0
 32 46  1  0
M  END
>  <group_name>  (1) 
JNS

>  <molecule_index>  (1) 
01155

>  <conformer_index>  (1) 
08

>  <method>  (1) 
openff-1.3.0

>  <basis>  (1) 
smirnoff

>  <program>  (1) 
openmm

>  <initial_energy>  (1) 
217.01299634962433 kilocalorie / mole

>  <final_energy>  (1) 
194.6682946001685 kilocalorie / mole

$$$$
