JNS-01948-06
     RDKit          3D

 33 34  0  0  0  0  0  0  0  0999 V2000
    0.0048   -0.1967    2.1944 C   0  0  0  0  0  0  0  0  0  0  0  0
    0.5646   -0.8881    1.0626 O   0  0  0  0  0  0  0  0  0  0  0  0
    1.6630   -0.3006    0.4748 C   0  0  0  0  0  0  0  0  0  0  0  0
    2.1673    0.8588    0.9400 N   0  0  0  0  0  0  0  0  0  0  0  0
    3.2489    1.4017    0.3221 C   0  0  0  0  0  0  0  0  0  0  0  0
    3.8371    0.7600   -0.7838 C   0  0  0  0  0  0  0  0  0  0  0  0
    3.3352   -0.4424   -1.2645 C   0  0  0  0  0  0  0  0  0  0  0  0
    3.9477   -1.1296   -2.4606 C   0  0  0  0  0  0  0  0  0  0  0  0
    5.2113   -1.9057   -2.0612 C   0  0  2  0  0  0  0  0  0  0  0  0
    5.8832   -2.6044   -3.2565 C   0  0  0  0  0  0  0  0  0  0  0  0
    5.9557   -4.0771   -2.8772 C   0  0  0  0  0  0  0  0  0  0  0  0
    5.9428   -4.0161   -1.4200 N   0  0  0  0  0  0  0  0  0  0  0  0
    4.9257   -3.0314   -1.0665 C   0  0  0  0  0  0  0  0  0  0  0  0
    2.2220   -0.9595   -0.6164 C   0  0  0  0  0  0  0  0  0  0  0  0
    3.8590    2.7244    0.8100 C   0  0  0  0  0  0  0  0  0  0  0  0
    5.1668    2.5295    1.1540 F   0  0  0  0  0  0  0  0  0  0  0  0
    3.8211    3.6489   -0.1951 F   0  0  0  0  0  0  0  0  0  0  0  0
    3.2088    3.2468    1.8928 F   0  0  0  0  0  0  0  0  0  0  0  0
   -0.3333    0.8043    1.9068 H   0  0  0  0  0  0  0  0  0  0  0  0
   -0.8544   -0.7533    2.5800 H   0  0  0  0  0  0  0  0  0  0  0  0
    0.7449   -0.1056    2.9963 H   0  0  0  0  0  0  0  0  0  0  0  0
    4.6988    1.2158   -1.2623 H   0  0  0  0  0  0  0  0  0  0  0  0
    3.2196   -1.8103   -2.9142 H   0  0  0  0  0  0  0  0  0  0  0  0
    4.2031   -0.3791   -3.2157 H   0  0  0  0  0  0  0  0  0  0  0  0
    5.9361   -1.2167   -1.6145 H   0  0  0  0  0  0  0  0  0  0  0  0
    6.8942   -2.2053   -3.3869 H   0  0  0  0  0  0  0  0  0  0  0  0
    5.3338   -2.4736   -4.1941 H   0  0  0  0  0  0  0  0  0  0  0  0
    5.0679   -4.6056   -3.2419 H   0  0  0  0  0  0  0  0  0  0  0  0
    6.8539   -4.5659   -3.2692 H   0  0  0  0  0  0  0  0  0  0  0  0
    6.8516   -3.6906   -1.0901 H   0  0  0  0  0  0  0  0  0  0  0  0
    5.0130   -2.6981   -0.0269 H   0  0  0  0  0  0  0  0  0  0  0  0
    3.9255   -3.4486   -1.2277 H   0  0  0  0  0  0  0  0  0  0  0  0
    1.7623   -1.8864   -0.9381 H   0  0  0  0  0  0  0  0  0  0  0  0
  1  2  1  0
  1 19  1  0
  1 20  1  0
  1 21  1  0
  2  3  1  0
  3  4  2  0
  3 14  1  0
  4  5  1  0
  5  6  2  0
  5 15  1  0
  6  7  1  0
  6 22  1  0
  7  8  1  0
  7 14  2  0
  8  9  1  0
  8 23  1  0
  8 24  1  0
  9 10  1  0
  9 13  1  0
  9 25  1  1
 10 11  1  0
 10 26  1  0
 10 27  1  0
 11 12  1  0
 11 28  1  0
 11 29  1  0
 12 13  1  0
 12 30  1  0
 13 31  1  0
 13 32  1  0
 14 33  1  0
 15 16  1  0
 15 17  1  0
 15 18  1  0
M  END
>  <group_name>  (1) 
JNS

>  <molecule_index>  (1) 
01948

>  <conformer_index>  (1) 
06

>  <method>  (1) 
openff-1.3.0

>  <basis>  (1) 
smirnoff

>  <program>  (1) 
openmm

>  <initial_energy>  (1) 
51.417470689892106 kilocalorie / mole

>  <final_energy>  (1) 
43.84566562320789 kilocalorie / mole

$$$$
