JNS-00617-01
     RDKit          3D

 44 48  0  0  0  0  0  0  0  0999 V2000
   -1.8088   -4.9651    0.9124 F   0  0  0  0  0  0  0  0  0  0  0  0
   -1.3508   -4.3952   -0.2419 C   0  0  0  0  0  0  0  0  0  0  0  0
   -0.0200   -4.6826   -0.3583 F   0  0  0  0  0  0  0  0  0  0  0  0
   -2.0025   -4.9875   -1.2870 F   0  0  0  0  0  0  0  0  0  0  0  0
   -1.6475   -2.8916   -0.2311 C   0  0  0  0  0  0  0  0  0  0  0  0
   -0.6361   -1.9818   -0.3120 N   0  0  0  0  0  0  0  0  0  0  0  0
   -0.9727   -0.6789   -0.2987 C   0  0  0  0  0  0  0  0  0  0  0  0
   -0.1756    0.4284   -0.3780 C   0  0  0  0  0  0  0  0  0  0  0  0
   -1.0622    1.5050   -0.3059 N   0  0  0  0  0  0  0  0  0  0  0  0
   -0.6842    2.9110   -0.1148 C   0  0  0  0  0  0  0  0  0  0  0  0
    0.0084    3.1340    1.2371 C   0  0  0  0  0  0  0  0  0  0  0  0
   -0.8715    2.9479    2.4738 C   0  0  0  0  0  0  0  0  0  0  0  0
   -0.5405    4.3642    2.9259 C   0  0  0  0  0  0  0  0  0  0  0  0
    0.2279    4.5940    1.6304 C   0  0  0  0  0  0  0  0  0  0  0  0
   -2.3535    1.0852   -0.2198 N   0  0  0  0  0  0  0  0  0  0  0  0
   -2.2775   -0.2189   -0.2121 C   0  0  0  0  0  0  0  0  0  0  0  0
   -3.3272   -1.1173   -0.1289 C   0  0  0  0  0  0  0  0  0  0  0  0
   -2.9969   -2.4719   -0.1388 C   0  0  0  0  0  0  0  0  0  0  0  0
    1.2885    0.4591   -0.4862 C   0  0  0  0  0  0  0  0  0  0  0  0
    1.9291    1.2986   -1.4211 C   0  0  0  0  0  0  0  0  0  0  0  0
    3.3296    1.3409   -1.5083 C   0  0  0  0  0  0  0  0  0  0  0  0
    4.0810    0.5370   -0.6505 C   0  0  0  0  0  0  0  0  0  0  0  0
    5.4254    0.3257   -0.4623 N   0  0  0  0  0  0  0  0  0  0  0  0
    5.5604   -0.6067    0.5520 C   0  0  0  0  0  0  0  0  0  0  0  0
    6.7391   -1.0794    1.0321 O   0  0  0  0  0  0  0  0  0  0  0  0
    4.4044   -0.9911    1.0082 N   0  0  0  0  0  0  0  0  0  0  0  0
    3.4641   -0.2932    0.2622 C   0  0  0  0  0  0  0  0  0  0  0  0
    2.0750   -0.3554    0.3492 C   0  0  0  0  0  0  0  0  0  0  0  0
   -1.5872    3.5272   -0.1650 H   0  0  0  0  0  0  0  0  0  0  0  0
   -0.0308    3.2346   -0.9276 H   0  0  0  0  0  0  0  0  0  0  0  0
    0.9362    2.5561    1.3137 H   0  0  0  0  0  0  0  0  0  0  0  0
   -1.9341    2.7982    2.2536 H   0  0  0  0  0  0  0  0  0  0  0  0
   -0.5215    2.1652    3.1551 H   0  0  0  0  0  0  0  0  0  0  0  0
    0.0880    4.4019    3.8219 H   0  0  0  0  0  0  0  0  0  0  0  0
   -1.4153    5.0106    3.0501 H   0  0  0  0  0  0  0  0  0  0  0  0
   -0.2522    5.3175    0.9631 H   0  0  0  0  0  0  0  0  0  0  0  0
    1.2792    4.8630    1.7772 H   0  0  0  0  0  0  0  0  0  0  0  0
   -4.3557   -0.7740   -0.0593 H   0  0  0  0  0  0  0  0  0  0  0  0
   -3.7837   -3.2168   -0.0755 H   0  0  0  0  0  0  0  0  0  0  0  0
    1.3387    1.9029   -2.1019 H   0  0  0  0  0  0  0  0  0  0  0  0
    3.8180    1.9821   -2.2354 H   0  0  0  0  0  0  0  0  0  0  0  0
    6.1783    0.7605   -0.9807 H   0  0  0  0  0  0  0  0  0  0  0  0
    7.4681   -0.6936    0.5362 H   0  0  0  0  0  0  0  0  0  0  0  0
    1.6203   -1.0300    1.0684 H   0  0  0  0  0  0  0  0  0  0  0  0
  1  2  1  0
  2  3  1  0
  2  4  1  0
  2  5  1  0
  5  6  2  0
  5 18  1  0
  6  7  1  0
  7  8  2  0
  7 16  1  0
  8  9  1  0
  8 19  1  0
  9 10  1  0
  9 15  1  0
 10 11  1  0
 10 29  1  0
 10 30  1  0
 11 12  1  0
 11 14  1  0
 11 31  1  0
 12 13  1  0
 12 32  1  0
 12 33  1  0
 13 14  1  0
 13 34  1  0
 13 35  1  0
 14 36  1  0
 14 37  1  0
 15 16  2  0
 16 17  1  0
 17 18  2  0
 17 38  1  0
 18 39  1  0
 19 20  2  0
 19 28  1  0
 20 21  1  0
 20 40  1  0
 21 22  2  0
 21 41  1  0
 22 23  1  0
 22 27  1  0
 23 24  1  0
 23 42  1  0
 24 25  1  0
 24 26  2  0
 25 43  1  0
 26 27  1  0
 27 28  2  0
 28 44  1  0
M  END
>  <group_name>  (1) 
JNS

>  <molecule_index>  (1) 
00617

>  <conformer_index>  (1) 
01

>  <method>  (1) 
openff-1.3.0

>  <basis>  (1) 
smirnoff

>  <program>  (1) 
openmm

>  <initial_energy>  (1) 
126.60945593290575 kilocalorie / mole

>  <final_energy>  (1) 
112.62077430052454 kilocalorie / mole

$$$$
