JNS-00129-00
     RDKit          3D

 31 33  0  0  0  0  0  0  0  0999 V2000
    0.0489   -2.4080    0.6117 N   0  0  0  0  0  0  0  0  0  0  0  0
   -0.6449   -1.2145    0.3655 C   0  0  0  0  0  0  0  0  0  0  0  0
   -0.0284   -0.0585   -0.2027 C   0  0  0  0  0  0  0  0  0  0  0  0
    1.3562   -0.0829   -0.4002 N   0  0  0  0  0  0  0  0  0  0  0  0
    2.1306    0.8085   -1.1553 C   0  0  0  0  0  0  0  0  0  0  0  0
    1.6306    1.5467   -2.2463 C   0  0  0  0  0  0  0  0  0  0  0  0
    2.4862    2.3933   -2.9598 C   0  0  0  0  0  0  0  0  0  0  0  0
    3.8089    2.5094   -2.6246 C   0  0  0  0  0  0  0  0  0  0  0  0
    4.3462    3.4145   -3.5254 N   0  0  0  0  0  0  0  0  0  0  0  0
    3.4111    3.8648   -4.4117 N   0  0  0  0  0  0  0  0  0  0  0  0
    2.2844    3.2692   -4.0916 C   0  0  0  0  0  0  0  0  0  0  0  0
    4.3391    1.7818   -1.5588 C   0  0  0  0  0  0  0  0  0  0  0  0
    3.4939    0.9291   -0.8312 C   0  0  0  0  0  0  0  0  0  0  0  0
   -0.7214    1.0612   -0.4785 N   0  0  0  0  0  0  0  0  0  0  0  0
   -2.0513    1.1034   -0.2033 C   0  0  0  0  0  0  0  0  0  0  0  0
   -2.7016   -0.0055    0.3738 C   0  0  0  0  0  0  0  0  0  0  0  0
   -2.0005   -1.1739    0.6626 C   0  0  0  0  0  0  0  0  0  0  0  0
   -2.8812    2.3534   -0.5157 C   0  0  0  0  0  0  0  0  0  0  0  0
   -3.9415    2.0130   -1.3071 F   0  0  0  0  0  0  0  0  0  0  0  0
   -3.3743    2.8770    0.6451 F   0  0  0  0  0  0  0  0  0  0  0  0
   -2.1687    3.3242   -1.1607 F   0  0  0  0  0  0  0  0  0  0  0  0
   -0.4955   -3.2258    0.8785 H   0  0  0  0  0  0  0  0  0  0  0  0
    0.9024   -2.5596    0.0748 H   0  0  0  0  0  0  0  0  0  0  0  0
    1.8509   -0.6546    0.2729 H   0  0  0  0  0  0  0  0  0  0  0  0
    0.5943    1.4657   -2.5537 H   0  0  0  0  0  0  0  0  0  0  0  0
    5.3219    3.7119   -3.5196 H   0  0  0  0  0  0  0  0  0  0  0  0
    1.3378    3.4131   -4.6036 H   0  0  0  0  0  0  0  0  0  0  0  0
    5.3880    1.8739   -1.2952 H   0  0  0  0  0  0  0  0  0  0  0  0
    3.9038    0.3641   -0.0014 H   0  0  0  0  0  0  0  0  0  0  0  0
   -3.7648    0.0554    0.5902 H   0  0  0  0  0  0  0  0  0  0  0  0
   -2.5083   -2.0274    1.1010 H   0  0  0  0  0  0  0  0  0  0  0  0
  1  2  1  0
  1 22  1  0
  1 23  1  0
  2  3  2  0
  2 17  1  0
  3  4  1  0
  3 14  1  0
  4  5  1  0
  4 24  1  0
  5  6  2  0
  5 13  1  0
  6  7  1  0
  6 25  1  0
  7  8  2  0
  7 11  1  0
  8  9  1  0
  8 12  1  0
  9 10  1  0
  9 26  1  0
 10 11  2  0
 11 27  1  0
 12 13  2  0
 12 28  1  0
 13 29  1  0
 14 15  2  0
 15 16  1  0
 15 18  1  0
 16 17  2  0
 16 30  1  0
 17 31  1  0
 18 19  1  0
 18 20  1  0
 18 21  1  0
M  END
>  <group_name>  (1) 
JNS

>  <molecule_index>  (1) 
00129

>  <conformer_index>  (1) 
00

>  <method>  (1) 
openff-1.3.0

>  <basis>  (1) 
smirnoff

>  <program>  (1) 
openmm

>  <initial_energy>  (1) 
129.17626397780515 kilocalorie / mole

>  <final_energy>  (1) 
116.20330292959325 kilocalorie / mole

$$$$
