JNS-01589-04
     RDKit          3D

 43 47  0  0  0  0  0  0  0  0999 V2000
   -2.4098    0.3517   -2.5733 C   0  0  0  0  0  0  0  0  0  0  0  0
   -1.6931    0.1039   -1.2700 C   0  0  0  0  0  0  0  0  0  0  0  0
   -2.4111   -0.1321   -0.0901 C   0  0  0  0  0  0  0  0  0  0  0  0
   -3.7118   -0.1801    0.0621 N   0  0  0  0  0  0  0  0  0  0  0  0
   -3.9024   -0.4114    1.3876 N   0  0  0  0  0  0  0  0  0  0  0  0
   -2.6957   -0.5114    2.0637 C   0  0  0  0  0  0  0  0  0  0  0  0
   -1.7453   -0.3333    1.1088 C   0  0  0  0  0  0  0  0  0  0  0  0
   -0.3523   -0.3219    1.1754 C   0  0  0  0  0  0  0  0  0  0  0  0
    0.3933   -0.1144    0.0041 C   0  0  0  0  0  0  0  0  0  0  0  0
   -0.2884    0.1204   -1.2047 C   0  0  0  0  0  0  0  0  0  0  0  0
    1.8611   -0.1293    0.0595 C   0  0  0  0  0  0  0  0  0  0  0  0
    2.6108    0.6137    0.9294 C   0  0  0  0  0  0  0  0  0  0  0  0
    2.2130    1.4685    1.8915 N   0  0  0  0  0  0  0  0  0  0  0  0
    3.1828    2.0989    2.6117 C   0  0  0  0  0  0  0  0  0  0  0  0
    4.5536    1.8593    2.3505 C   0  0  0  0  0  0  0  0  0  0  0  0
    4.9465    0.9713    1.3499 C   0  0  0  0  0  0  0  0  0  0  0  0
    3.9366    0.3463    0.6388 C   0  0  0  0  0  0  0  0  0  0  0  0
    4.0716   -0.5153   -0.3316 N   0  0  0  0  0  0  0  0  0  0  0  0
    2.8023   -0.8483   -0.6972 N   0  0  0  0  0  0  0  0  0  0  0  0
    2.5852   -2.0282   -1.5632 C   0  0  0  0  0  0  0  0  0  0  0  0
    2.1137   -1.7622   -2.9902 C   0  0  0  0  0  0  0  0  0  0  0  0
    0.9271   -2.6973   -2.7685 C   0  0  0  0  0  0  0  0  0  0  0  0
    1.3697   -2.9299   -1.3263 C   0  0  0  0  0  0  0  0  0  0  0  0
    2.8119    3.0780    3.7307 C   0  0  0  0  0  0  0  0  0  0  0  0
    3.2802    4.3254    3.4289 F   0  0  0  0  0  0  0  0  0  0  0  0
    3.3938    2.6844    4.9029 F   0  0  0  0  0  0  0  0  0  0  0  0
    1.4647    3.1680    3.9435 F   0  0  0  0  0  0  0  0  0  0  0  0
   -3.0074   -0.5246   -2.8410 H   0  0  0  0  0  0  0  0  0  0  0  0
   -3.0756    1.2141   -2.4728 H   0  0  0  0  0  0  0  0  0  0  0  0
   -1.7002    0.5521   -3.3810 H   0  0  0  0  0  0  0  0  0  0  0  0
   -4.8197   -0.4819    1.8249 H   0  0  0  0  0  0  0  0  0  0  0  0
   -2.5346   -0.6850    3.1232 H   0  0  0  0  0  0  0  0  0  0  0  0
    0.1516   -0.4736    2.1254 H   0  0  0  0  0  0  0  0  0  0  0  0
    0.2779    0.3397   -2.1004 H   0  0  0  0  0  0  0  0  0  0  0  0
    5.3074    2.3742    2.9376 H   0  0  0  0  0  0  0  0  0  0  0  0
    5.9920    0.7722    1.1315 H   0  0  0  0  0  0  0  0  0  0  0  0
    3.4983   -2.6325   -1.5657 H   0  0  0  0  0  0  0  0  0  0  0  0
    2.8165   -2.1089   -3.7546 H   0  0  0  0  0  0  0  0  0  0  0  0
    1.8391   -0.7241   -3.1940 H   0  0  0  0  0  0  0  0  0  0  0  0
    0.9539   -3.5996   -3.3884 H   0  0  0  0  0  0  0  0  0  0  0  0
   -0.0497   -2.2114   -2.8607 H   0  0  0  0  0  0  0  0  0  0  0  0
    0.6508   -2.5855   -0.5797 H   0  0  0  0  0  0  0  0  0  0  0  0
    1.6362   -3.9692   -1.1093 H   0  0  0  0  0  0  0  0  0  0  0  0
  1  2  1  0
  1 28  1  0
  1 29  1  0
  1 30  1  0
  2  3  1  0
  2 10  2  0
  3  4  2  0
  3  7  1  0
  4  5  1  0
  5  6  1  0
  5 31  1  0
  6  7  2  0
  6 32  1  0
  7  8  1  0
  8  9  2  0
  8 33  1  0
  9 10  1  0
  9 11  1  0
 10 34  1  0
 11 12  2  0
 11 19  1  0
 12 13  1  0
 12 17  1  0
 13 14  2  0
 14 15  1  0
 14 24  1  0
 15 16  2  0
 15 35  1  0
 16 17  1  0
 16 36  1  0
 17 18  2  0
 18 19  1  0
 19 20  1  0
 20 21  1  0
 20 23  1  0
 20 37  1  0
 21 22  1  0
 21 38  1  0
 21 39  1  0
 22 23  1  0
 22 40  1  0
 22 41  1  0
 23 42  1  0
 23 43  1  0
 24 25  1  0
 24 26  1  0
 24 27  1  0
M  END
>  <group_name>  (1) 
JNS

>  <molecule_index>  (1) 
01589

>  <conformer_index>  (1) 
04

>  <method>  (1) 
openff-1.3.0

>  <basis>  (1) 
smirnoff

>  <program>  (1) 
openmm

>  <initial_energy>  (1) 
182.9253205339667 kilocalorie / mole

>  <final_energy>  (1) 
164.81071540242579 kilocalorie / mole

$$$$
