JNS-01595-04
     RDKit          3D

 39 42  0  0  0  0  0  0  0  0999 V2000
   -0.3786   -1.1766    1.6969 C   0  0  0  0  0  0  0  0  0  0  0  0
   -0.1097   -0.4616    0.3656 C   0  0  0  0  0  0  0  0  0  0  0  0
   -0.5639   -1.3467   -0.8041 C   0  0  0  0  0  0  0  0  0  0  0  0
    1.3655   -0.1150    0.2354 C   0  0  0  0  0  0  0  0  0  0  0  0
    2.2720   -1.0595    0.1071 N   0  0  0  0  0  0  0  0  0  0  0  0
    3.4641   -0.3870   -0.1006 C   0  0  0  0  0  0  0  0  0  0  0  0
    3.2818    0.9817   -0.0968 C   0  0  0  0  0  0  0  0  0  0  0  0
    4.2777    1.8719   -0.2778 N   0  0  0  0  0  0  0  0  0  0  0  0
    5.5320    1.3791   -0.4826 C   0  0  0  0  0  0  0  0  0  0  0  0
    5.7672   -0.0176   -0.4986 C   0  0  0  0  0  0  0  0  0  0  0  0
    4.7223   -0.9224   -0.3049 C   0  0  0  0  0  0  0  0  0  0  0  0
    6.7189    2.3247   -0.7086 C   0  0  0  0  0  0  0  0  0  0  0  0
    7.3359    2.0175   -1.8882 F   0  0  0  0  0  0  0  0  0  0  0  0
    6.3529    3.6405   -0.7552 F   0  0  0  0  0  0  0  0  0  0  0  0
    7.6297    2.1679    0.2970 F   0  0  0  0  0  0  0  0  0  0  0  0
    1.9359    1.1680    0.1555 N   0  0  0  0  0  0  0  0  0  0  0  0
    1.3092    2.4139    0.3555 C   0  0  0  0  0  0  0  0  0  0  0  0
    1.6611    3.5220   -0.4406 C   0  0  0  0  0  0  0  0  0  0  0  0
    1.0372    4.7570   -0.2348 C   0  0  0  0  0  0  0  0  0  0  0  0
    0.0900    4.9146    0.7417 C   0  0  0  0  0  0  0  0  0  0  0  0
   -0.3082    6.2394    0.6696 N   0  0  0  0  0  0  0  0  0  0  0  0
    0.3521    6.9152   -0.3134 N   0  0  0  0  0  0  0  0  0  0  0  0
    1.1689    6.0517   -0.8708 C   0  0  0  0  0  0  0  0  0  0  0  0
    2.3546    6.4638   -2.3128 Br  0  0  0  0  0  0  0  0  0  0  0  0
   -0.2703    3.8470    1.5636 C   0  0  0  0  0  0  0  0  0  0  0  0
    0.3457    2.6009    1.3708 C   0  0  0  0  0  0  0  0  0  0  0  0
   -0.0665   -0.5510    2.5383 H   0  0  0  0  0  0  0  0  0  0  0  0
   -1.4457   -1.3947    1.8043 H   0  0  0  0  0  0  0  0  0  0  0  0
    0.1763   -2.1195    1.7462 H   0  0  0  0  0  0  0  0  0  0  0  0
   -0.7061    0.4521    0.3273 H   0  0  0  0  0  0  0  0  0  0  0  0
   -1.6351   -1.5579   -0.7295 H   0  0  0  0  0  0  0  0  0  0  0  0
   -0.0219   -2.2982   -0.8072 H   0  0  0  0  0  0  0  0  0  0  0  0
   -0.3776   -0.8385   -1.7556 H   0  0  0  0  0  0  0  0  0  0  0  0
    6.7747   -0.3875   -0.6641 H   0  0  0  0  0  0  0  0  0  0  0  0
    4.8685   -1.9987   -0.3116 H   0  0  0  0  0  0  0  0  0  0  0  0
    2.4097    3.4267   -1.2219 H   0  0  0  0  0  0  0  0  0  0  0  0
   -1.0026    6.6615    1.2854 H   0  0  0  0  0  0  0  0  0  0  0  0
   -1.0080    3.9806    2.3488 H   0  0  0  0  0  0  0  0  0  0  0  0
    0.0866    1.7878    2.0396 H   0  0  0  0  0  0  0  0  0  0  0  0
  1  2  1  0
  1 27  1  0
  1 28  1  0
  1 29  1  0
  2  3  1  0
  2  4  1  0
  2 30  1  0
  3 31  1  0
  3 32  1  0
  3 33  1  0
  4  5  2  0
  4 16  1  0
  5  6  1  0
  6  7  2  0
  6 11  1  0
  7  8  1  0
  7 16  1  0
  8  9  2  0
  9 10  1  0
  9 12  1  0
 10 11  2  0
 10 34  1  0
 11 35  1  0
 12 13  1  0
 12 14  1  0
 12 15  1  0
 16 17  1  0
 17 18  2  0
 17 26  1  0
 18 19  1  0
 18 36  1  0
 19 20  2  0
 19 23  1  0
 20 21  1  0
 20 25  1  0
 21 22  1  0
 21 37  1  0
 22 23  2  0
 23 24  1  0
 25 26  2  0
 25 38  1  0
 26 39  1  0
M  END
>  <group_name>  (1) 
JNS

>  <molecule_index>  (1) 
01595

>  <conformer_index>  (1) 
04

>  <method>  (1) 
openff-1.3.0

>  <basis>  (1) 
smirnoff

>  <program>  (1) 
openmm

>  <initial_energy>  (1) 
155.76329552667897 kilocalorie / mole

>  <final_energy>  (1) 
145.0842141194319 kilocalorie / mole

$$$$
