JNS-00617-06
     RDKit          3D

 44 48  0  0  0  0  0  0  0  0999 V2000
    0.0395   -4.4907    0.0967 F   0  0  0  0  0  0  0  0  0  0  0  0
   -1.2869   -4.1792    0.2012 C   0  0  0  0  0  0  0  0  0  0  0  0
   -1.9563   -4.8538   -0.7809 F   0  0  0  0  0  0  0  0  0  0  0  0
   -1.7377   -4.6403    1.4059 F   0  0  0  0  0  0  0  0  0  0  0  0
   -1.5683   -2.6772    0.0828 C   0  0  0  0  0  0  0  0  0  0  0  0
   -0.5486   -1.7892   -0.0868 N   0  0  0  0  0  0  0  0  0  0  0  0
   -0.8724   -0.4868   -0.1831 C   0  0  0  0  0  0  0  0  0  0  0  0
   -0.0647    0.5987   -0.3712 C   0  0  0  0  0  0  0  0  0  0  0  0
   -0.9360    1.6913   -0.3720 N   0  0  0  0  0  0  0  0  0  0  0  0
   -0.5400    3.1099   -0.4107 C   0  0  0  0  0  0  0  0  0  0  0  0
   -0.4027    3.8039    0.9629 C   0  0  0  0  0  0  0  0  0  0  0  0
    0.4205    3.0782    2.0316 C   0  0  0  0  0  0  0  0  0  0  0  0
   -0.8332    2.8974    2.8780 C   0  0  0  0  0  0  0  0  0  0  0  0
   -1.6199    3.7505    1.8907 C   0  0  0  0  0  0  0  0  0  0  0  0
   -2.2322    1.2918   -0.2551 N   0  0  0  0  0  0  0  0  0  0  0  0
   -2.1708   -0.0066   -0.1274 C   0  0  0  0  0  0  0  0  0  0  0  0
   -3.2290   -0.8826    0.0418 C   0  0  0  0  0  0  0  0  0  0  0  0
   -2.9125   -2.2364    0.1491 C   0  0  0  0  0  0  0  0  0  0  0  0
    1.3955    0.5844   -0.5207 C   0  0  0  0  0  0  0  0  0  0  0  0
    2.0217    1.2450   -1.5977 C   0  0  0  0  0  0  0  0  0  0  0  0
    3.4193    1.2378   -1.7303 C   0  0  0  0  0  0  0  0  0  0  0  0
    4.1816    0.5634   -0.7756 C   0  0  0  0  0  0  0  0  0  0  0  0
    5.5266    0.3510   -0.5940 N   0  0  0  0  0  0  0  0  0  0  0  0
    5.6750   -0.4111    0.5522 C   0  0  0  0  0  0  0  0  0  0  0  0
    6.8585   -0.8308    1.0682 O   0  0  0  0  0  0  0  0  0  0  0  0
    4.5265   -0.6887    1.0967 N   0  0  0  0  0  0  0  0  0  0  0  0
    3.5775   -0.0951    0.2754 C   0  0  0  0  0  0  0  0  0  0  0  0
    2.1911   -0.1085    0.4099 C   0  0  0  0  0  0  0  0  0  0  0  0
   -1.2825    3.6519   -1.0035 H   0  0  0  0  0  0  0  0  0  0  0  0
    0.4086    3.2080   -0.9407 H   0  0  0  0  0  0  0  0  0  0  0  0
   -0.0577    4.8338    0.8228 H   0  0  0  0  0  0  0  0  0  0  0  0
    1.1760    3.7151    2.5034 H   0  0  0  0  0  0  0  0  0  0  0  0
    0.8844    2.1387    1.7219 H   0  0  0  0  0  0  0  0  0  0  0  0
   -1.1785    1.8590    2.9270 H   0  0  0  0  0  0  0  0  0  0  0  0
   -0.7628    3.3205    3.8852 H   0  0  0  0  0  0  0  0  0  0  0  0
   -1.9015    4.7297    2.2918 H   0  0  0  0  0  0  0  0  0  0  0  0
   -2.5077    3.2593    1.4821 H   0  0  0  0  0  0  0  0  0  0  0  0
   -4.2533   -0.5232    0.0876 H   0  0  0  0  0  0  0  0  0  0  0  0
   -3.7062   -2.9642    0.2839 H   0  0  0  0  0  0  0  0  0  0  0  0
    1.4195    1.7459   -2.3493 H   0  0  0  0  0  0  0  0  0  0  0  0
    3.8969    1.7412   -2.5651 H   0  0  0  0  0  0  0  0  0  0  0  0
    6.2712    0.6777   -1.1970 H   0  0  0  0  0  0  0  0  0  0  0  0
    7.5789   -0.5479    0.4961 H   0  0  0  0  0  0  0  0  0  0  0  0
    1.7445   -0.6514    1.2374 H   0  0  0  0  0  0  0  0  0  0  0  0
  1  2  1  0
  2  3  1  0
  2  4  1  0
  2  5  1  0
  5  6  2  0
  5 18  1  0
  6  7  1  0
  7  8  2  0
  7 16  1  0
  8  9  1  0
  8 19  1  0
  9 10  1  0
  9 15  1  0
 10 11  1  0
 10 29  1  0
 10 30  1  0
 11 12  1  0
 11 14  1  0
 11 31  1  0
 12 13  1  0
 12 32  1  0
 12 33  1  0
 13 14  1  0
 13 34  1  0
 13 35  1  0
 14 36  1  0
 14 37  1  0
 15 16  2  0
 16 17  1  0
 17 18  2  0
 17 38  1  0
 18 39  1  0
 19 20  2  0
 19 28  1  0
 20 21  1  0
 20 40  1  0
 21 22  2  0
 21 41  1  0
 22 23  1  0
 22 27  1  0
 23 24  1  0
 23 42  1  0
 24 25  1  0
 24 26  2  0
 25 43  1  0
 26 27  1  0
 27 28  2  0
 28 44  1  0
M  END
>  <group_name>  (1) 
JNS

>  <molecule_index>  (1) 
00617

>  <conformer_index>  (1) 
06

>  <method>  (1) 
openff-1.3.0

>  <basis>  (1) 
smirnoff

>  <program>  (1) 
openmm

>  <initial_energy>  (1) 
129.55548306730776 kilocalorie / mole

>  <final_energy>  (1) 
114.45683163932257 kilocalorie / mole

$$$$
