JNS-01948-09
     RDKit          3D

 33 34  0  0  0  0  0  0  0  0999 V2000
    0.0791    0.3112    1.6295 C   0  0  0  0  0  0  0  0  0  0  0  0
    0.5718   -0.5698    0.6029 O   0  0  0  0  0  0  0  0  0  0  0  0
    1.7226   -0.1689   -0.0394 C   0  0  0  0  0  0  0  0  0  0  0  0
    2.3315    0.9894    0.2780 N   0  0  0  0  0  0  0  0  0  0  0  0
    3.4558    1.3469   -0.3954 C   0  0  0  0  0  0  0  0  0  0  0  0
    3.9818    0.5147   -1.4012 C   0  0  0  0  0  0  0  0  0  0  0  0
    3.3816   -0.6985   -1.7190 C   0  0  0  0  0  0  0  0  0  0  0  0
    3.9153   -1.5833   -2.8258 C   0  0  0  0  0  0  0  0  0  0  0  0
    4.9498   -2.6341   -2.3712 C   0  0  2  0  0  0  0  0  0  0  0  0
    4.4320   -3.6656   -1.3507 C   0  0  0  0  0  0  0  0  0  0  0  0
    5.4144   -3.6074   -0.1895 C   0  0  0  0  0  0  0  0  0  0  0  0
    6.6276   -3.1352   -0.8479 N   0  0  0  0  0  0  0  0  0  0  0  0
    6.2068   -2.0473   -1.7242 C   0  0  0  0  0  0  0  0  0  0  0  0
    2.2178   -1.0124   -1.0291 C   0  0  0  0  0  0  0  0  0  0  0  0
    4.1799    2.6654   -0.0840 C   0  0  0  0  0  0  0  0  0  0  0  0
    4.2110    3.4490   -1.2027 F   0  0  0  0  0  0  0  0  0  0  0  0
    3.5846    3.3794    0.9179 F   0  0  0  0  0  0  0  0  0  0  0  0
    5.4696    2.4087    0.2860 F   0  0  0  0  0  0  0  0  0  0  0  0
   -0.1623    1.2942    1.2116 H   0  0  0  0  0  0  0  0  0  0  0  0
    0.8240    0.4350    2.4225 H   0  0  0  0  0  0  0  0  0  0  0  0
   -0.8292   -0.1078    2.0721 H   0  0  0  0  0  0  0  0  0  0  0  0
    4.8756    0.8322   -1.9297 H   0  0  0  0  0  0  0  0  0  0  0  0
    4.3706   -0.9521   -3.5957 H   0  0  0  0  0  0  0  0  0  0  0  0
    3.0770   -2.0993   -3.3048 H   0  0  0  0  0  0  0  0  0  0  0  0
    5.2671   -3.1902   -3.2597 H   0  0  0  0  0  0  0  0  0  0  0  0
    4.4550   -4.6622   -1.8030 H   0  0  0  0  0  0  0  0  0  0  0  0
    3.4138   -3.4717   -1.0064 H   0  0  0  0  0  0  0  0  0  0  0  0
    5.0773   -2.8772    0.5549 H   0  0  0  0  0  0  0  0  0  0  0  0
    5.5492   -4.5811    0.2931 H   0  0  0  0  0  0  0  0  0  0  0  0
    7.0193   -3.8902   -1.4108 H   0  0  0  0  0  0  0  0  0  0  0  0
    6.9720   -1.7896   -2.4638 H   0  0  0  0  0  0  0  0  0  0  0  0
    5.9756   -1.1630   -1.1236 H   0  0  0  0  0  0  0  0  0  0  0  0
    1.6646   -1.9193   -1.2402 H   0  0  0  0  0  0  0  0  0  0  0  0
  1  2  1  0
  1 19  1  0
  1 20  1  0
  1 21  1  0
  2  3  1  0
  3  4  2  0
  3 14  1  0
  4  5  1  0
  5  6  2  0
  5 15  1  0
  6  7  1  0
  6 22  1  0
  7  8  1  0
  7 14  2  0
  8  9  1  0
  8 23  1  0
  8 24  1  0
  9 10  1  0
  9 13  1  0
  9 25  1  6
 10 11  1  0
 10 26  1  0
 10 27  1  0
 11 12  1  0
 11 28  1  0
 11 29  1  0
 12 13  1  0
 12 30  1  0
 13 31  1  0
 13 32  1  0
 14 33  1  0
 15 16  1  0
 15 17  1  0
 15 18  1  0
M  END
>  <group_name>  (1) 
JNS

>  <molecule_index>  (1) 
01948

>  <conformer_index>  (1) 
09

>  <method>  (1) 
openff-1.3.0

>  <basis>  (1) 
smirnoff

>  <program>  (1) 
openmm

>  <initial_energy>  (1) 
52.904458790148105 kilocalorie / mole

>  <final_energy>  (1) 
45.50017439946379 kilocalorie / mole

$$$$
