JNS-01795-00
     RDKit          3D

 43 46  0  0  0  0  0  0  0  0999 V2000
   -0.3137    1.8024    0.0431 C   0  0  0  0  0  0  0  0  0  0  0  0
   -0.1258    0.2668    0.0293 C   0  0  0  0  0  0  0  0  0  0  0  0
   -0.7696   -0.2942    1.3091 C   0  0  0  0  0  0  0  0  0  0  0  0
   -0.8972   -0.2399   -1.2080 C   0  0  0  0  0  0  0  0  0  0  0  0
    1.3776   -0.0728   -0.0026 C   0  0  0  0  0  0  0  0  0  0  0  0
    2.2331    0.6821    0.6594 N   0  0  0  0  0  0  0  0  0  0  0  0
    3.4902    0.2244    0.3046 C   0  0  0  0  0  0  0  0  0  0  0  0
    3.4085   -0.8312   -0.5767 C   0  0  0  0  0  0  0  0  0  0  0  0
    4.4764   -1.4659   -1.0998 N   0  0  0  0  0  0  0  0  0  0  0  0
    5.7098   -1.0232   -0.7250 C   0  0  0  0  0  0  0  0  0  0  0  0
    5.8473    0.0593    0.1792 C   0  0  0  0  0  0  0  0  0  0  0  0
    4.7245    0.6996    0.7069 C   0  0  0  0  0  0  0  0  0  0  0  0
    6.9806   -1.6823   -1.2763 C   0  0  0  0  0  0  0  0  0  0  0  0
    7.7558   -0.7435   -1.8962 F   0  0  0  0  0  0  0  0  0  0  0  0
    7.7065   -2.2159   -0.2496 F   0  0  0  0  0  0  0  0  0  0  0  0
    6.7222   -2.6763   -2.1781 F   0  0  0  0  0  0  0  0  0  0  0  0
    2.0601   -1.0667   -0.7363 N   0  0  0  0  0  0  0  0  0  0  0  0
    1.5518   -2.2322   -1.3272 C   0  0  0  0  0  0  0  0  0  0  0  0
    0.7475   -3.1271   -0.5977 C   0  0  0  0  0  0  0  0  0  0  0  0
    0.2638   -4.2817   -1.2152 C   0  0  0  0  0  0  0  0  0  0  0  0
    0.5867   -4.5719   -2.5294 C   0  0  0  0  0  0  0  0  0  0  0  0
   -0.0218   -5.7741   -2.8621 N   0  0  0  0  0  0  0  0  0  0  0  0
   -0.7308   -6.2541   -1.7591 C   0  0  0  0  0  0  0  0  0  0  0  0
   -0.5743   -5.3558   -0.7244 C   0  0  0  0  0  0  0  0  0  0  0  0
    1.4112   -3.7201   -3.2637 C   0  0  0  0  0  0  0  0  0  0  0  0
    1.8977   -2.5539   -2.6544 C   0  0  0  0  0  0  0  0  0  0  0  0
   -1.3751    2.0698    0.0303 H   0  0  0  0  0  0  0  0  0  0  0  0
    0.1264    2.2451    0.9428 H   0  0  0  0  0  0  0  0  0  0  0  0
    0.1674    2.2535   -0.8309 H   0  0  0  0  0  0  0  0  0  0  0  0
   -0.7186   -1.3843    1.3326 H   0  0  0  0  0  0  0  0  0  0  0  0
   -1.8236   -0.0049    1.3694 H   0  0  0  0  0  0  0  0  0  0  0  0
   -0.2551    0.0917    2.1954 H   0  0  0  0  0  0  0  0  0  0  0  0
   -1.9146    0.1636   -1.2236 H   0  0  0  0  0  0  0  0  0  0  0  0
   -0.3904    0.0692   -2.1279 H   0  0  0  0  0  0  0  0  0  0  0  0
   -0.9936   -1.3267   -1.2083 H   0  0  0  0  0  0  0  0  0  0  0  0
    6.8400    0.3950    0.4635 H   0  0  0  0  0  0  0  0  0  0  0  0
    4.7946    1.5335    1.3992 H   0  0  0  0  0  0  0  0  0  0  0  0
    0.5162   -2.9448    0.4442 H   0  0  0  0  0  0  0  0  0  0  0  0
    0.0595   -6.2368   -3.7658 H   0  0  0  0  0  0  0  0  0  0  0  0
   -1.3037   -7.1770   -1.7168 H   0  0  0  0  0  0  0  0  0  0  0  0
   -0.9954   -5.4379    0.2734 H   0  0  0  0  0  0  0  0  0  0  0  0
    1.6819   -3.9567   -4.2878 H   0  0  0  0  0  0  0  0  0  0  0  0
    2.5527   -1.8911   -3.2132 H   0  0  0  0  0  0  0  0  0  0  0  0
  1  2  1  0
  1 27  1  0
  1 28  1  0
  1 29  1  0
  2  3  1  0
  2  4  1  0
  2  5  1  0
  3 30  1  0
  3 31  1  0
  3 32  1  0
  4 33  1  0
  4 34  1  0
  4 35  1  0
  5  6  2  0
  5 17  1  0
  6  7  1  0
  7  8  2  0
  7 12  1  0
  8  9  1  0
  8 17  1  0
  9 10  2  0
 10 11  1  0
 10 13  1  0
 11 12  2  0
 11 36  1  0
 12 37  1  0
 13 14  1  0
 13 15  1  0
 13 16  1  0
 17 18  1  0
 18 19  2  0
 18 26  1  0
 19 20  1  0
 19 38  1  0
 20 21  2  0
 20 24  1  0
 21 22  1  0
 21 25  1  0
 22 23  1  0
 22 39  1  0
 23 24  2  0
 23 40  1  0
 24 41  1  0
 25 26  2  0
 25 42  1  0
 26 43  1  0
M  END
>  <group_name>  (1) 
JNS

>  <molecule_index>  (1) 
01795

>  <conformer_index>  (1) 
00

>  <method>  (1) 
openff-1.3.0

>  <basis>  (1) 
smirnoff

>  <program>  (1) 
openmm

>  <initial_energy>  (1) 
169.15017759738447 kilocalorie / mole

>  <final_energy>  (1) 
159.64625922405295 kilocalorie / mole

$$$$
