JNS-01565-01
     RDKit          3D

 41 44  0  0  0  0  0  0  0  0999 V2000
   -0.9292    0.2407   -1.0396 C   0  0  0  0  0  0  0  0  0  0  0  0
    0.0398   -0.8356   -0.5331 C   0  0  0  0  0  0  0  0  0  0  0  0
   -0.5048   -1.5187    0.7260 C   0  0  0  0  0  0  0  0  0  0  0  0
    1.4727   -0.3388   -0.3425 C   0  0  0  0  0  0  0  0  0  0  0  0
    2.5817   -1.1365   -0.6045 C   0  0  0  0  0  0  0  0  0  0  0  0
    2.6260   -2.9875   -1.1126 Br  0  0  0  0  0  0  0  0  0  0  0  0
    3.7587   -0.3045   -0.4791 C   0  0  0  0  0  0  0  0  0  0  0  0
    3.3408    0.9683   -0.1419 C   0  0  0  0  0  0  0  0  0  0  0  0
    4.1742    2.0096    0.0468 N   0  0  0  0  0  0  0  0  0  0  0  0
    5.5082    1.7823   -0.1089 C   0  0  0  0  0  0  0  0  0  0  0  0
    5.9874    0.4961   -0.4543 C   0  0  0  0  0  0  0  0  0  0  0  0
    5.1095   -0.5703   -0.6452 C   0  0  0  0  0  0  0  0  0  0  0  0
    6.5234    2.9172    0.0789 C   0  0  0  0  0  0  0  0  0  0  0  0
    5.9330    4.1223    0.3386 F   0  0  0  0  0  0  0  0  0  0  0  0
    7.3622    2.6188    1.1144 F   0  0  0  0  0  0  0  0  0  0  0  0
    7.2781    3.0535   -1.0516 F   0  0  0  0  0  0  0  0  0  0  0  0
    1.9502    0.9511   -0.0108 N   0  0  0  0  0  0  0  0  0  0  0  0
    1.2188    2.0330    0.5074 C   0  0  0  0  0  0  0  0  0  0  0  0
    1.3357    3.3016   -0.0725 C   0  0  0  0  0  0  0  0  0  0  0  0
    0.5967    4.3280    0.4992 C   0  0  0  0  0  0  0  0  0  0  0  0
   -0.1933    4.0624    1.5988 C   0  0  0  0  0  0  0  0  0  0  0  0
   -0.8380    5.1764    2.0354 N   0  0  0  0  0  0  0  0  0  0  0  0
   -0.3645    6.2269    1.3115 C   0  0  0  0  0  0  0  0  0  0  0  0
   -0.5268    7.3775    1.6887 O   0  0  0  0  0  0  0  0  0  0  0  0
    0.5362    5.7936    0.1566 C   0  0  0  0  0  0  0  0  0  0  0  0
   -0.3030    2.8904    2.2127 N   0  0  0  0  0  0  0  0  0  0  0  0
    0.4176    1.8902    1.6615 C   0  0  0  0  0  0  0  0  0  0  0  0
   -1.1433    0.9887   -0.2739 H   0  0  0  0  0  0  0  0  0  0  0  0
   -0.5116    0.7409   -1.9190 H   0  0  0  0  0  0  0  0  0  0  0  0
   -1.8804   -0.2186   -1.3261 H   0  0  0  0  0  0  0  0  0  0  0  0
    0.0648   -1.5930   -1.3222 H   0  0  0  0  0  0  0  0  0  0  0  0
   -1.4782   -1.9726    0.5156 H   0  0  0  0  0  0  0  0  0  0  0  0
    0.1772   -2.3093    1.0538 H   0  0  0  0  0  0  0  0  0  0  0  0
   -0.6349   -0.8093    1.5444 H   0  0  0  0  0  0  0  0  0  0  0  0
    7.0555    0.3399   -0.5730 H   0  0  0  0  0  0  0  0  0  0  0  0
    5.4626   -1.5629   -0.9128 H   0  0  0  0  0  0  0  0  0  0  0  0
    1.9846    3.4766   -0.9282 H   0  0  0  0  0  0  0  0  0  0  0  0
   -1.0136    5.2990    3.0228 H   0  0  0  0  0  0  0  0  0  0  0  0
    0.0538    5.9751   -0.8069 H   0  0  0  0  0  0  0  0  0  0  0  0
    1.5146    6.2777    0.2161 H   0  0  0  0  0  0  0  0  0  0  0  0
    0.3924    0.9278    2.1587 H   0  0  0  0  0  0  0  0  0  0  0  0
  1  2  1  0
  1 28  1  0
  1 29  1  0
  1 30  1  0
  2  3  1  0
  2  4  1  0
  2 31  1  0
  3 32  1  0
  3 33  1  0
  3 34  1  0
  4  5  2  0
  4 17  1  0
  5  6  1  0
  5  7  1  0
  7  8  2  0
  7 12  1  0
  8  9  1  0
  8 17  1  0
  9 10  2  0
 10 11  1  0
 10 13  1  0
 11 12  2  0
 11 35  1  0
 12 36  1  0
 13 14  1  0
 13 15  1  0
 13 16  1  0
 17 18  1  0
 18 19  2  0
 18 27  1  0
 19 20  1  0
 19 37  1  0
 20 21  2  0
 20 25  1  0
 21 22  1  0
 21 26  1  0
 22 23  1  0
 22 38  1  0
 23 24  2  0
 23 25  1  0
 25 39  1  0
 25 40  1  0
 26 27  2  0
 27 41  1  0
M  END
>  <group_name>  (1) 
JNS

>  <molecule_index>  (1) 
01565

>  <conformer_index>  (1) 
01

>  <method>  (1) 
openff-1.3.0

>  <basis>  (1) 
smirnoff

>  <program>  (1) 
openmm

>  <initial_energy>  (1) 
60.499653121607835 kilocalorie / mole

>  <final_energy>  (1) 
48.37018144557158 kilocalorie / mole

$$$$
