JNS-02536-08
     RDKit          3D

 44 47  0  0  0  0  0  0  0  0999 V2000
   -6.8935   -3.3238   -2.1051 C   0  0  0  0  0  0  0  0  0  0  0  0
   -5.6221   -2.6847   -1.6102 C   0  0  0  0  0  0  0  0  0  0  0  0
   -4.9516   -1.7356   -2.3890 C   0  0  0  0  0  0  0  0  0  0  0  0
   -3.7563   -1.1615   -1.9405 C   0  0  0  0  0  0  0  0  0  0  0  0
   -3.1916   -1.5284   -0.7044 C   0  0  0  0  0  0  0  0  0  0  0  0
   -3.8725   -2.4875    0.0651 C   0  0  0  0  0  0  0  0  0  0  0  0
   -5.0685   -3.0612   -0.3822 C   0  0  0  0  0  0  0  0  0  0  0  0
   -1.9917   -0.9500   -0.2373 N   0  0  0  0  0  0  0  0  0  0  0  0
   -1.0049   -0.4172   -1.0779 C   0  0  0  0  0  0  0  0  0  0  0  0
   -0.6031   -1.0110   -2.5907 S   0  0  0  0  0  0  0  0  0  0  0  0
   -0.3083    0.6091   -0.4696 N   0  0  0  0  0  0  0  0  0  0  0  0
   -0.7849    0.7093    0.8038 C   0  0  0  0  0  0  0  0  0  0  0  0
   -0.5118    1.6312    1.5709 O   0  0  0  0  0  0  0  0  0  0  0  0
   -1.8494   -0.3513    1.1061 C   0  0  0  0  0  0  0  0  0  0  0  0
   -3.0685    0.1619    1.8777 C   0  0  0  0  0  0  0  0  0  0  0  0
   -2.4958   -0.5220    3.1233 C   0  0  0  0  0  0  0  0  0  0  0  0
   -1.4444   -1.2453    2.2758 C   0  0  0  0  0  0  0  0  0  0  0  0
    1.0492    0.7198   -0.6841 C   0  0  0  0  0  0  0  0  0  0  0  0
    1.8840    0.2147    0.2374 N   0  0  0  0  0  0  0  0  0  0  0  0
    3.2316    0.3029    0.0498 C   0  0  0  0  0  0  0  0  0  0  0  0
    3.7570    0.9203   -1.1181 C   0  0  0  0  0  0  0  0  0  0  0  0
    2.8829    1.4349   -2.0748 C   0  0  0  0  0  0  0  0  0  0  0  0
    1.5182    1.3287   -1.8465 C   0  0  0  0  0  0  0  0  0  0  0  0
    5.1600    1.0348   -1.3567 C   0  0  0  0  0  0  0  0  0  0  0  0
    6.2997    1.1422   -1.5742 N   0  0  0  0  0  0  0  0  0  0  0  0
    4.1693   -0.2817    1.1244 C   0  0  0  0  0  0  0  0  0  0  0  0
    4.9680    0.6945    1.6482 F   0  0  0  0  0  0  0  0  0  0  0  0
    4.9530   -1.2663    0.5936 F   0  0  0  0  0  0  0  0  0  0  0  0
    3.4818   -0.8398    2.1665 F   0  0  0  0  0  0  0  0  0  0  0  0
   -6.9211   -3.3288   -3.1990 H   0  0  0  0  0  0  0  0  0  0  0  0
   -7.7591   -2.7677   -1.7333 H   0  0  0  0  0  0  0  0  0  0  0  0
   -6.9625   -4.3589   -1.7569 H   0  0  0  0  0  0  0  0  0  0  0  0
   -5.3578   -1.4352   -3.3507 H   0  0  0  0  0  0  0  0  0  0  0  0
   -3.2837   -0.4150   -2.5703 H   0  0  0  0  0  0  0  0  0  0  0  0
   -3.4739   -2.8119    1.0182 H   0  0  0  0  0  0  0  0  0  0  0  0
   -5.5659   -3.8070    0.2313 H   0  0  0  0  0  0  0  0  0  0  0  0
   -3.1506    1.2520    1.9436 H   0  0  0  0  0  0  0  0  0  0  0  0
   -4.0264   -0.2615    1.5633 H   0  0  0  0  0  0  0  0  0  0  0  0
   -3.1977   -1.1867    3.6370 H   0  0  0  0  0  0  0  0  0  0  0  0
   -2.0598    0.1837    3.8392 H   0  0  0  0  0  0  0  0  0  0  0  0
   -0.4106   -1.1200    2.6173 H   0  0  0  0  0  0  0  0  0  0  0  0
   -1.6558   -2.3077    2.1294 H   0  0  0  0  0  0  0  0  0  0  0  0
    3.2582    1.9068   -2.9812 H   0  0  0  0  0  0  0  0  0  0  0  0
    0.8023    1.7092   -2.5674 H   0  0  0  0  0  0  0  0  0  0  0  0
  1  2  1  0
  1 30  1  0
  1 31  1  0
  1 32  1  0
  2  3  2  0
  2  7  1  0
  3  4  1  0
  3 33  1  0
  4  5  2  0
  4 34  1  0
  5  6  1  0
  5  8  1  0
  6  7  2  0
  6 35  1  0
  7 36  1  0
  8  9  1  0
  8 14  1  0
  9 10  2  0
  9 11  1  0
 11 12  1  0
 11 18  1  0
 12 13  2  0
 12 14  1  0
 14 15  1  0
 14 17  1  0
 15 16  1  0
 15 37  1  0
 15 38  1  0
 16 17  1  0
 16 39  1  0
 16 40  1  0
 17 41  1  0
 17 42  1  0
 18 19  2  0
 18 23  1  0
 19 20  1  0
 20 21  2  0
 20 26  1  0
 21 22  1  0
 21 24  1  0
 22 23  2  0
 22 43  1  0
 23 44  1  0
 24 25  3  0
 26 27  1  0
 26 28  1  0
 26 29  1  0
M  END
>  <group_name>  (1) 
JNS

>  <molecule_index>  (1) 
02536

>  <conformer_index>  (1) 
08

>  <method>  (1) 
openff-1.3.0

>  <basis>  (1) 
smirnoff

>  <program>  (1) 
openmm

>  <initial_energy>  (1) 
74.71028028287931 kilocalorie / mole

>  <final_energy>  (1) 
59.290881152187794 kilocalorie / mole

$$$$
