JNS-01792-06
     RDKit          3D

 40 44  0  0  0  0  0  0  0  0999 V2000
   -0.2507   -1.2876   -1.5971 F   0  0  0  0  0  0  0  0  0  0  0  0
   -0.0489   -0.6709   -0.3952 C   0  0  0  0  0  0  0  0  0  0  0  0
   -0.6681   -1.4091    0.5745 F   0  0  0  0  0  0  0  0  0  0  0  0
   -0.6553    0.5526   -0.4420 F   0  0  0  0  0  0  0  0  0  0  0  0
    1.4556   -0.4967   -0.1479 C   0  0  0  0  0  0  0  0  0  0  0  0
    2.0624   -1.1091    0.9067 N   0  0  0  0  0  0  0  0  0  0  0  0
    3.3848   -0.9078    1.0767 C   0  0  0  0  0  0  0  0  0  0  0  0
    4.1447   -0.1205    0.2252 C   0  0  0  0  0  0  0  0  0  0  0  0
    5.5079   -0.1362    0.6959 C   0  0  0  0  0  0  0  0  0  0  0  0
    5.5458   -0.9410    1.8178 C   0  0  0  0  0  0  0  0  0  0  0  0
    6.7701   -1.1622    2.6801 C   0  0  0  0  0  0  0  0  0  0  0  0
    7.8344   -2.1423    2.1966 C   0  0  0  0  0  0  0  0  0  0  0  0
    8.1475   -0.6544    2.2559 C   0  0  0  0  0  0  0  0  0  0  0  0
    4.2440   -1.4302    2.0547 N   0  0  0  0  0  0  0  0  0  0  0  0
    3.8559   -2.2967    3.0984 C   0  0  0  0  0  0  0  0  0  0  0  0
    2.6125   -2.1338    3.7447 C   0  0  0  0  0  0  0  0  0  0  0  0
    2.2424   -2.9986    4.7777 C   0  0  0  0  0  0  0  0  0  0  0  0
    3.0793   -4.0249    5.1758 C   0  0  0  0  0  0  0  0  0  0  0  0
    2.4887   -4.7368    6.2000 N   0  0  0  0  0  0  0  0  0  0  0  0
    1.2296   -4.2473    6.3979 C   0  0  0  0  0  0  0  0  0  0  0  0
    0.4055   -4.8631    7.0605 O   0  0  0  0  0  0  0  0  0  0  0  0
    0.9535   -3.0065    5.5572 C   0  0  0  0  0  0  0  0  0  0  0  0
    4.3037   -4.2255    4.5481 C   0  0  0  0  0  0  0  0  0  0  0  0
    4.6873   -3.3615    3.5109 C   0  0  0  0  0  0  0  0  0  0  0  0
    3.5627    0.5188   -0.8560 C   0  0  0  0  0  0  0  0  0  0  0  0
    2.1955    0.3207   -1.0348 C   0  0  0  0  0  0  0  0  0  0  0  0
    6.3360    0.4115    0.2581 H   0  0  0  0  0  0  0  0  0  0  0  0
    6.5501   -1.1404    3.7529 H   0  0  0  0  0  0  0  0  0  0  0  0
    8.3077   -2.7852    2.9454 H   0  0  0  0  0  0  0  0  0  0  0  0
    7.6966   -2.5951    1.2092 H   0  0  0  0  0  0  0  0  0  0  0  0
    8.2503   -0.1228    1.3062 H   0  0  0  0  0  0  0  0  0  0  0  0
    8.8221   -0.3108    3.0466 H   0  0  0  0  0  0  0  0  0  0  0  0
    1.9341   -1.3365    3.4554 H   0  0  0  0  0  0  0  0  0  0  0  0
    2.6411   -5.7287    6.3418 H   0  0  0  0  0  0  0  0  0  0  0  0
    0.0822   -3.1507    4.9138 H   0  0  0  0  0  0  0  0  0  0  0  0
    0.8495   -2.1200    6.1865 H   0  0  0  0  0  0  0  0  0  0  0  0
    4.9492   -5.0422    4.8551 H   0  0  0  0  0  0  0  0  0  0  0  0
    5.6286   -3.5456    3.0062 H   0  0  0  0  0  0  0  0  0  0  0  0
    4.1467    1.1412   -1.5287 H   0  0  0  0  0  0  0  0  0  0  0  0
    1.6876    0.7985   -1.8673 H   0  0  0  0  0  0  0  0  0  0  0  0
  1  2  1  0
  2  3  1  0
  2  4  1  0
  2  5  1  0
  5  6  2  0
  5 26  1  0
  6  7  1  0
  7  8  2  0
  7 14  1  0
  8  9  1  0
  8 25  1  0
  9 10  2  0
  9 27  1  0
 10 11  1  0
 10 14  1  0
 11 12  1  0
 11 13  1  0
 11 28  1  0
 12 13  1  0
 12 29  1  0
 12 30  1  0
 13 31  1  0
 13 32  1  0
 14 15  1  0
 15 16  2  0
 15 24  1  0
 16 17  1  0
 16 33  1  0
 17 18  2  0
 17 22  1  0
 18 19  1  0
 18 23  1  0
 19 20  1  0
 19 34  1  0
 20 21  2  0
 20 22  1  0
 22 35  1  0
 22 36  1  0
 23 24  2  0
 23 37  1  0
 24 38  1  0
 25 26  2  0
 25 39  1  0
 26 40  1  0
M  END
>  <group_name>  (1) 
JNS

>  <molecule_index>  (1) 
01792

>  <conformer_index>  (1) 
06

>  <method>  (1) 
openff-1.3.0

>  <basis>  (1) 
smirnoff

>  <program>  (1) 
openmm

>  <initial_energy>  (1) 
129.8686840593711 kilocalorie / mole

>  <final_energy>  (1) 
118.62657472597067 kilocalorie / mole

$$$$
