JNS-01564-02
     RDKit          3D

 45 49  0  0  0  0  0  0  0  0999 V2000
   -2.9874    2.4169   -0.4550 C   0  0  0  0  0  0  0  0  0  0  0  0
   -2.1522    1.1780   -0.2468 C   0  0  0  0  0  0  0  0  0  0  0  0
   -2.7538   -0.0652   -0.0284 C   0  0  0  0  0  0  0  0  0  0  0  0
   -4.0936   -0.4009    0.0204 N   0  0  0  0  0  0  0  0  0  0  0  0
   -4.2025   -1.7576    0.1214 C   0  0  0  0  0  0  0  0  0  0  0  0
   -5.2683   -2.3253   -0.0756 O   0  0  0  0  0  0  0  0  0  0  0  0
   -2.8495   -2.4326    0.3061 C   0  0  0  0  0  0  0  0  0  0  0  0
   -1.9893   -1.2054    0.1543 C   0  0  0  0  0  0  0  0  0  0  0  0
   -0.5954   -1.1436    0.1430 C   0  0  0  0  0  0  0  0  0  0  0  0
    0.0429    0.0943   -0.0450 C   0  0  0  0  0  0  0  0  0  0  0  0
   -0.7474    1.2439   -0.2514 C   0  0  0  0  0  0  0  0  0  0  0  0
    1.5130    0.1762   -0.0532 C   0  0  0  0  0  0  0  0  0  0  0  0
    2.3815   -0.7141   -0.6243 C   0  0  0  0  0  0  0  0  0  0  0  0
    2.1291   -1.8548   -1.2941 N   0  0  0  0  0  0  0  0  0  0  0  0
    3.1972   -2.5491   -1.7785 C   0  0  0  0  0  0  0  0  0  0  0  0
    4.5185   -2.0801   -1.5820 C   0  0  0  0  0  0  0  0  0  0  0  0
    4.7616   -0.8951   -0.8887 C   0  0  0  0  0  0  0  0  0  0  0  0
    3.6556   -0.2146   -0.4090 C   0  0  0  0  0  0  0  0  0  0  0  0
    3.6495    0.9072    0.2591 N   0  0  0  0  0  0  0  0  0  0  0  0
    2.3333    1.1597    0.5066 N   0  0  0  0  0  0  0  0  0  0  0  0
    1.8666    2.2276    1.4103 C   0  0  0  0  0  0  0  0  0  0  0  0
    1.9850    3.6551    0.8782 C   0  0  0  0  0  0  0  0  0  0  0  0
    2.6571    4.0765    2.1804 C   0  0  0  0  0  0  0  0  0  0  0  0
    2.7736    2.6108    2.5843 C   0  0  0  0  0  0  0  0  0  0  0  0
    2.9924   -3.8615   -2.5428 C   0  0  0  0  0  0  0  0  0  0  0  0
    3.4559   -3.7296   -3.8210 F   0  0  0  0  0  0  0  0  0  0  0  0
    3.6987   -4.8642   -1.9407 F   0  0  0  0  0  0  0  0  0  0  0  0
    1.6826   -4.2487   -2.6017 F   0  0  0  0  0  0  0  0  0  0  0  0
   -2.3681    3.3180   -0.4155 H   0  0  0  0  0  0  0  0  0  0  0  0
   -3.4797    2.3749   -1.4313 H   0  0  0  0  0  0  0  0  0  0  0  0
   -3.7520    2.4919    0.3243 H   0  0  0  0  0  0  0  0  0  0  0  0
   -4.8022    0.0957   -0.5070 H   0  0  0  0  0  0  0  0  0  0  0  0
   -2.6634   -3.1677   -0.4807 H   0  0  0  0  0  0  0  0  0  0  0  0
   -2.7623   -2.8745    1.3010 H   0  0  0  0  0  0  0  0  0  0  0  0
   -0.0112   -2.0504    0.2774 H   0  0  0  0  0  0  0  0  0  0  0  0
   -0.2646    2.1966   -0.4414 H   0  0  0  0  0  0  0  0  0  0  0  0
    5.3523   -2.6514   -1.9777 H   0  0  0  0  0  0  0  0  0  0  0  0
    5.7670   -0.5156   -0.7278 H   0  0  0  0  0  0  0  0  0  0  0  0
    0.8575    2.0122    1.7744 H   0  0  0  0  0  0  0  0  0  0  0  0
    1.0283    4.1474    0.6778 H   0  0  0  0  0  0  0  0  0  0  0  0
    2.6454    3.7467    0.0085 H   0  0  0  0  0  0  0  0  0  0  0  0
    2.0056    4.6599    2.8397 H   0  0  0  0  0  0  0  0  0  0  0  0
    3.6169    4.5875    2.0498 H   0  0  0  0  0  0  0  0  0  0  0  0
    3.7985    2.2310    2.5158 H   0  0  0  0  0  0  0  0  0  0  0  0
    2.3581    2.3740    3.5689 H   0  0  0  0  0  0  0  0  0  0  0  0
  1  2  1  0
  1 29  1  0
  1 30  1  0
  1 31  1  0
  2  3  2  0
  2 11  1  0
  3  4  1  0
  3  8  1  0
  4  5  1  0
  4 32  1  0
  5  6  2  0
  5  7  1  0
  7  8  1  0
  7 33  1  0
  7 34  1  0
  8  9  2  0
  9 10  1  0
  9 35  1  0
 10 11  2  0
 10 12  1  0
 11 36  1  0
 12 13  2  0
 12 20  1  0
 13 14  1  0
 13 18  1  0
 14 15  2  0
 15 16  1  0
 15 25  1  0
 16 17  2  0
 16 37  1  0
 17 18  1  0
 17 38  1  0
 18 19  2  0
 19 20  1  0
 20 21  1  0
 21 22  1  0
 21 24  1  0
 21 39  1  0
 22 23  1  0
 22 40  1  0
 22 41  1  0
 23 24  1  0
 23 42  1  0
 23 43  1  0
 24 44  1  0
 24 45  1  0
 25 26  1  0
 25 27  1  0
 25 28  1  0
M  END
>  <group_name>  (1) 
JNS

>  <molecule_index>  (1) 
01564

>  <conformer_index>  (1) 
02

>  <method>  (1) 
openff-1.3.0

>  <basis>  (1) 
smirnoff

>  <program>  (1) 
openmm

>  <initial_energy>  (1) 
141.1937844172282 kilocalorie / mole

>  <final_energy>  (1) 
126.34909646695155 kilocalorie / mole

$$$$
