JNS-01474-00
     RDKit          3D

 39 42  0  0  0  0  0  0  0  0999 V2000
   -0.8280    0.8553    0.3785 C   0  0  0  0  0  0  0  0  0  0  0  0
   -0.9201    0.3591   -1.0714 C   0  0  0  0  0  0  0  0  0  0  0  0
    0.2120    0.8871   -1.9747 C   0  0  0  0  0  0  0  0  0  0  0  0
    0.0574    2.2436   -2.0601 F   0  0  0  0  0  0  0  0  0  0  0  0
    0.0168    0.4113   -3.2379 F   0  0  0  0  0  0  0  0  0  0  0  0
    1.6105    0.5159   -1.4519 C   0  0  0  0  0  0  0  0  0  0  0  0
    2.5215    1.4381   -1.1942 N   0  0  0  0  0  0  0  0  0  0  0  0
    3.5878    0.7660   -0.6234 C   0  0  0  0  0  0  0  0  0  0  0  0
    3.3338   -0.5840   -0.5207 C   0  0  0  0  0  0  0  0  0  0  0  0
    4.1916   -1.4741    0.0163 N   0  0  0  0  0  0  0  0  0  0  0  0
    5.3830   -0.9967    0.4755 C   0  0  0  0  0  0  0  0  0  0  0  0
    5.6922    0.3830    0.3881 C   0  0  0  0  0  0  0  0  0  0  0  0
    4.7849    1.2863   -0.1679 C   0  0  0  0  0  0  0  0  0  0  0  0
    6.4139   -1.9406    1.1078 C   0  0  0  0  0  0  0  0  0  0  0  0
    6.7286   -1.5043    2.3635 F   0  0  0  0  0  0  0  0  0  0  0  0
    7.5573   -1.9412    0.3614 F   0  0  0  0  0  0  0  0  0  0  0  0
    5.9664   -3.2279    1.2103 F   0  0  0  0  0  0  0  0  0  0  0  0
    2.0854   -0.7636   -1.0833 N   0  0  0  0  0  0  0  0  0  0  0  0
    1.4442   -2.0079   -1.2219 C   0  0  0  0  0  0  0  0  0  0  0  0
    0.8541   -2.4025   -2.4388 C   0  0  0  0  0  0  0  0  0  0  0  0
    0.2119   -3.6409   -2.5266 C   0  0  0  0  0  0  0  0  0  0  0  0
    0.1664   -4.4935   -1.4561 C   0  0  0  0  0  0  0  0  0  0  0  0
   -0.5251   -5.6108   -1.8937 N   0  0  0  0  0  0  0  0  0  0  0  0
   -0.9116   -5.4884   -3.1970 N   0  0  0  0  0  0  0  0  0  0  0  0
   -0.4779   -4.3174   -3.6027 C   0  0  0  0  0  0  0  0  0  0  0  0
    0.7693   -4.1501   -0.2465 C   0  0  0  0  0  0  0  0  0  0  0  0
    1.4116   -2.9082   -0.1359 C   0  0  0  0  0  0  0  0  0  0  0  0
   -1.6816    0.4837    0.9538 H   0  0  0  0  0  0  0  0  0  0  0  0
    0.0886    0.4966    0.8571 H   0  0  0  0  0  0  0  0  0  0  0  0
   -0.8388    1.9494    0.4144 H   0  0  0  0  0  0  0  0  0  0  0  0
   -0.9229   -0.7336   -1.0740 H   0  0  0  0  0  0  0  0  0  0  0  0
   -1.8771    0.6806   -1.4941 H   0  0  0  0  0  0  0  0  0  0  0  0
    6.6473    0.7415    0.7603 H   0  0  0  0  0  0  0  0  0  0  0  0
    4.9881    2.3508   -0.2473 H   0  0  0  0  0  0  0  0  0  0  0  0
    0.9164   -1.7789   -3.3236 H   0  0  0  0  0  0  0  0  0  0  0  0
   -0.7052   -6.4315   -1.3146 H   0  0  0  0  0  0  0  0  0  0  0  0
   -0.6194   -3.9147   -4.6013 H   0  0  0  0  0  0  0  0  0  0  0  0
    0.7500   -4.8331    0.5972 H   0  0  0  0  0  0  0  0  0  0  0  0
    1.8863   -2.6420    0.8047 H   0  0  0  0  0  0  0  0  0  0  0  0
  1  2  1  0
  1 28  1  0
  1 29  1  0
  1 30  1  0
  2  3  1  0
  2 31  1  0
  2 32  1  0
  3  4  1  0
  3  5  1  0
  3  6  1  0
  6  7  2  0
  6 18  1  0
  7  8  1  0
  8  9  2  0
  8 13  1  0
  9 10  1  0
  9 18  1  0
 10 11  2  0
 11 12  1  0
 11 14  1  0
 12 13  2  0
 12 33  1  0
 13 34  1  0
 14 15  1  0
 14 16  1  0
 14 17  1  0
 18 19  1  0
 19 20  2  0
 19 27  1  0
 20 21  1  0
 20 35  1  0
 21 22  2  0
 21 25  1  0
 22 23  1  0
 22 26  1  0
 23 24  1  0
 23 36  1  0
 24 25  2  0
 25 37  1  0
 26 27  2  0
 26 38  1  0
 27 39  1  0
M  END
>  <group_name>  (1) 
JNS

>  <molecule_index>  (1) 
01474

>  <conformer_index>  (1) 
00

>  <method>  (1) 
openff-1.3.0

>  <basis>  (1) 
smirnoff

>  <program>  (1) 
openmm

>  <initial_energy>  (1) 
190.04515803782232 kilocalorie / mole

>  <final_energy>  (1) 
178.46296354740625 kilocalorie / mole

$$$$
