JNS-01589-09
     RDKit          3D

 43 47  0  0  0  0  0  0  0  0999 V2000
   -3.0789   -2.2247    0.1269 C   0  0  0  0  0  0  0  0  0  0  0  0
   -2.2077   -0.9937    0.1155 C   0  0  0  0  0  0  0  0  0  0  0  0
   -2.7761    0.2862    0.1501 C   0  0  0  0  0  0  0  0  0  0  0  0
   -4.0481    0.6002    0.1833 N   0  0  0  0  0  0  0  0  0  0  0  0
   -4.0742    1.9584    0.2243 N   0  0  0  0  0  0  0  0  0  0  0  0
   -2.7938    2.4906    0.2133 C   0  0  0  0  0  0  0  0  0  0  0  0
   -1.9686    1.4121    0.1644 C   0  0  0  0  0  0  0  0  0  0  0  0
   -0.5781    1.3098    0.1360 C   0  0  0  0  0  0  0  0  0  0  0  0
    0.0226    0.0408    0.0858 C   0  0  0  0  0  0  0  0  0  0  0  0
   -0.8054   -1.1017    0.0912 C   0  0  0  0  0  0  0  0  0  0  0  0
    1.4893   -0.0864    0.0450 C   0  0  0  0  0  0  0  0  0  0  0  0
    2.4032    0.6717    0.7269 C   0  0  0  0  0  0  0  0  0  0  0  0
    2.2135    1.6994    1.5771 N   0  0  0  0  0  0  0  0  0  0  0  0
    3.3190    2.2682    2.1345 C   0  0  0  0  0  0  0  0  0  0  0  0
    4.6158    1.7899    1.8285 C   0  0  0  0  0  0  0  0  0  0  0  0
    4.7954    0.7237    0.9484 C   0  0  0  0  0  0  0  0  0  0  0  0
    3.6525    0.1696    0.3984 C   0  0  0  0  0  0  0  0  0  0  0  0
    3.5897   -0.8289   -0.4403 N   0  0  0  0  0  0  0  0  0  0  0  0
    2.2593   -0.9927   -0.6892 N   0  0  0  0  0  0  0  0  0  0  0  0
    1.7294   -1.8847   -1.7390 C   0  0  0  0  0  0  0  0  0  0  0  0
    1.8007   -3.3755   -1.4021 C   0  0  0  0  0  0  0  0  0  0  0  0
    2.8672   -3.5760   -2.4720 C   0  0  0  0  0  0  0  0  0  0  0  0
    2.6447   -2.1441   -2.9420 C   0  0  0  0  0  0  0  0  0  0  0  0
    3.1845    3.4491    3.1019 C   0  0  0  0  0  0  0  0  0  0  0  0
    3.9190    4.5078    2.6469 F   0  0  0  0  0  0  0  0  0  0  0  0
    3.6694    3.0995    4.3303 F   0  0  0  0  0  0  0  0  0  0  0  0
    1.8941    3.8727    3.2574 F   0  0  0  0  0  0  0  0  0  0  0  0
   -3.7471   -2.1995    0.9929 H   0  0  0  0  0  0  0  0  0  0  0  0
   -2.4747   -3.1346    0.1814 H   0  0  0  0  0  0  0  0  0  0  0  0
   -3.6847   -2.2589   -0.7834 H   0  0  0  0  0  0  0  0  0  0  0  0
   -4.9303    2.5083    0.2722 H   0  0  0  0  0  0  0  0  0  0  0  0
   -2.5028    3.5362    0.2441 H   0  0  0  0  0  0  0  0  0  0  0  0
    0.0299    2.2096    0.1497 H   0  0  0  0  0  0  0  0  0  0  0  0
   -0.3569   -2.0883    0.0983 H   0  0  0  0  0  0  0  0  0  0  0  0
    5.4805    2.2599    2.2859 H   0  0  0  0  0  0  0  0  0  0  0  0
    5.7806    0.3388    0.6999 H   0  0  0  0  0  0  0  0  0  0  0  0
    0.7342   -1.5649   -2.0623 H   0  0  0  0  0  0  0  0  0  0  0  0
    0.8700   -3.9122   -1.6127 H   0  0  0  0  0  0  0  0  0  0  0  0
    2.1398   -3.5989   -0.3846 H   0  0  0  0  0  0  0  0  0  0  0  0
    2.6261   -4.3412   -3.2171 H   0  0  0  0  0  0  0  0  0  0  0  0
    3.8682   -3.7479   -2.0616 H   0  0  0  0  0  0  0  0  0  0  0  0
    3.5529   -1.5337   -2.9855 H   0  0  0  0  0  0  0  0  0  0  0  0
    2.1195   -2.0836   -3.9007 H   0  0  0  0  0  0  0  0  0  0  0  0
  1  2  1  0
  1 28  1  0
  1 29  1  0
  1 30  1  0
  2  3  1  0
  2 10  2  0
  3  4  2  0
  3  7  1  0
  4  5  1  0
  5  6  1  0
  5 31  1  0
  6  7  2  0
  6 32  1  0
  7  8  1  0
  8  9  2  0
  8 33  1  0
  9 10  1  0
  9 11  1  0
 10 34  1  0
 11 12  2  0
 11 19  1  0
 12 13  1  0
 12 17  1  0
 13 14  2  0
 14 15  1  0
 14 24  1  0
 15 16  2  0
 15 35  1  0
 16 17  1  0
 16 36  1  0
 17 18  2  0
 18 19  1  0
 19 20  1  0
 20 21  1  0
 20 23  1  0
 20 37  1  0
 21 22  1  0
 21 38  1  0
 21 39  1  0
 22 23  1  0
 22 40  1  0
 22 41  1  0
 23 42  1  0
 23 43  1  0
 24 25  1  0
 24 26  1  0
 24 27  1  0
M  END
>  <group_name>  (1) 
JNS

>  <molecule_index>  (1) 
01589

>  <conformer_index>  (1) 
09

>  <method>  (1) 
openff-1.3.0

>  <basis>  (1) 
smirnoff

>  <program>  (1) 
openmm

>  <initial_energy>  (1) 
178.61123303672755 kilocalorie / mole

>  <final_energy>  (1) 
161.69297480695025 kilocalorie / mole

$$$$
