JNS-01082-03
     RDKit          3D

 43 46  0  0  0  0  0  0  0  0999 V2000
   -2.3602    1.9756    0.2736 C   0  0  0  0  0  0  0  0  0  0  0  0
   -1.0666    2.7383   -0.0430 C   0  0  2  0  0  0  0  0  0  0  0  0
   -1.0487    3.3101   -1.4693 C   0  0  0  0  0  0  0  0  0  0  0  0
    0.2431    4.0831   -1.6784 C   0  0  0  0  0  0  0  0  0  0  0  0
    1.3227    3.8970   -0.8639 C   0  0  0  0  0  0  0  0  0  0  0  0
    1.3683    2.8963    0.2701 C   0  0  0  0  0  0  0  0  0  0  0  0
    0.1965    2.0091    0.1747 N   0  0  0  0  0  0  0  0  0  0  0  0
    0.3938    0.6878   -0.2269 C   0  0  0  0  0  0  0  0  0  0  0  0
   -0.4453    0.1177   -0.9191 O   0  0  0  0  0  0  0  0  0  0  0  0
    1.6069   -0.0813    0.1058 C   0  0  0  0  0  0  0  0  0  0  0  0
    2.2024   -0.0492    1.3781 C   0  0  0  0  0  0  0  0  0  0  0  0
    1.6471    0.6991    2.3694 F   0  0  0  0  0  0  0  0  0  0  0  0
    3.3649   -0.8210    1.6313 C   0  0  0  0  0  0  0  0  0  0  0  0
    3.9178   -1.6132    0.6670 N   0  0  0  0  0  0  0  0  0  0  0  0
    3.3274   -1.6626   -0.5392 C   0  0  0  0  0  0  0  0  0  0  0  0
    2.1868   -0.9251   -0.8481 C   0  0  0  0  0  0  0  0  0  0  0  0
    4.0009   -0.7549    3.0233 C   0  0  0  0  0  0  0  0  0  0  0  0
    5.1270   -1.5223    3.1217 F   0  0  0  0  0  0  0  0  0  0  0  0
    3.1182   -1.1968    3.9667 F   0  0  0  0  0  0  0  0  0  0  0  0
    4.3547    0.5310    3.3174 F   0  0  0  0  0  0  0  0  0  0  0  0
    2.3567    4.7278   -1.2410 N   0  0  0  0  0  0  0  0  0  0  0  0
    1.9346    5.4384   -2.2563 N   0  0  0  0  0  0  0  0  0  0  0  0
    0.6516    5.0799   -2.5579 N   0  0  0  0  0  0  0  0  0  0  0  0
   -0.0890    5.6290   -3.6319 C   0  0  0  0  0  0  0  0  0  0  0  0
   -1.3313    5.1591   -3.8803 N   0  0  0  0  0  0  0  0  0  0  0  0
   -2.0142    5.6832   -4.9034 C   0  0  0  0  0  0  0  0  0  0  0  0
   -1.4893    6.6861   -5.7058 C   0  0  0  0  0  0  0  0  0  0  0  0
   -2.2157    7.2136   -6.7586 O   0  0  0  0  0  0  0  0  0  0  0  0
   -0.2087    7.1193   -5.3884 C   0  0  0  0  0  0  0  0  0  0  0  0
    0.4830    6.6043   -4.3719 N   0  0  0  0  0  0  0  0  0  0  0  0
   -2.5694    1.1985   -0.4660 H   0  0  0  0  0  0  0  0  0  0  0  0
   -3.2075    2.6674    0.2702 H   0  0  0  0  0  0  0  0  0  0  0  0
   -2.2928    1.5165    1.2644 H   0  0  0  0  0  0  0  0  0  0  0  0
   -1.0617    3.5887    0.6485 H   0  0  0  0  0  0  0  0  0  0  0  0
   -1.9131    3.9654   -1.6090 H   0  0  0  0  0  0  0  0  0  0  0  0
   -1.1107    2.5000   -2.2031 H   0  0  0  0  0  0  0  0  0  0  0  0
    1.3615    3.4255    1.2279 H   0  0  0  0  0  0  0  0  0  0  0  0
    2.3149    2.3541    0.2023 H   0  0  0  0  0  0  0  0  0  0  0  0
    3.7586   -2.3036   -1.3028 H   0  0  0  0  0  0  0  0  0  0  0  0
    1.7522   -1.0129   -1.8403 H   0  0  0  0  0  0  0  0  0  0  0  0
   -3.0133    5.3112   -5.1123 H   0  0  0  0  0  0  0  0  0  0  0  0
   -1.7245    7.9042   -7.2393 H   0  0  0  0  0  0  0  0  0  0  0  0
    0.2511    7.9029   -5.9836 H   0  0  0  0  0  0  0  0  0  0  0  0
  1  2  1  0
  1 31  1  0
  1 32  1  0
  1 33  1  0
  2  3  1  0
  2  7  1  0
  2 34  1  1
  3  4  1  0
  3 35  1  0
  3 36  1  0
  4  5  2  0
  4 23  1  0
  5  6  1  0
  5 21  1  0
  6  7  1  0
  6 37  1  0
  6 38  1  0
  7  8  1  0
  8  9  2  0
  8 10  1  0
 10 11  2  0
 10 16  1  0
 11 12  1  0
 11 13  1  0
 13 14  2  0
 13 17  1  0
 14 15  1  0
 15 16  2  0
 15 39  1  0
 16 40  1  0
 17 18  1  0
 17 19  1  0
 17 20  1  0
 21 22  2  0
 22 23  1  0
 23 24  1  0
 24 25  2  0
 24 30  1  0
 25 26  1  0
 26 27  2  0
 26 41  1  0
 27 28  1  0
 27 29  1  0
 28 42  1  0
 29 30  2  0
 29 43  1  0
M  END
>  <group_name>  (1) 
JNS

>  <molecule_index>  (1) 
01082

>  <conformer_index>  (1) 
03

>  <method>  (1) 
openff-1.3.0

>  <basis>  (1) 
smirnoff

>  <program>  (1) 
openmm

>  <initial_energy>  (1) 
115.49973006019806 kilocalorie / mole

>  <final_energy>  (1) 
105.66302560829025 kilocalorie / mole

$$$$
