JNS-01595-02
     RDKit          3D

 39 42  0  0  0  0  0  0  0  0999 V2000
   -0.5400   -1.0316   -1.5422 C   0  0  0  0  0  0  0  0  0  0  0  0
   -0.1515   -0.4152   -0.1906 C   0  0  0  0  0  0  0  0  0  0  0  0
   -0.5174   -1.3781    0.9473 C   0  0  0  0  0  0  0  0  0  0  0  0
    1.3338   -0.0895   -0.1560 C   0  0  0  0  0  0  0  0  0  0  0  0
    2.2336   -1.0126   -0.4182 N   0  0  0  0  0  0  0  0  0  0  0  0
    3.4460   -0.3445   -0.4106 C   0  0  0  0  0  0  0  0  0  0  0  0
    3.2831    0.9994   -0.1388 C   0  0  0  0  0  0  0  0  0  0  0  0
    4.3010    1.8806   -0.0729 N   0  0  0  0  0  0  0  0  0  0  0  0
    5.5591    1.4057   -0.2962 C   0  0  0  0  0  0  0  0  0  0  0  0
    5.7753    0.0354   -0.5823 C   0  0  0  0  0  0  0  0  0  0  0  0
    4.7073   -0.8613   -0.6418 C   0  0  0  0  0  0  0  0  0  0  0  0
    6.7714    2.3450   -0.2510 C   0  0  0  0  0  0  0  0  0  0  0  0
    7.4592    2.2682   -1.4289 F   0  0  0  0  0  0  0  0  0  0  0  0
    7.6129    1.9618    0.7542 F   0  0  0  0  0  0  0  0  0  0  0  0
    6.4278    3.6520   -0.0483 F   0  0  0  0  0  0  0  0  0  0  0  0
    1.9261    1.1670    0.0627 N   0  0  0  0  0  0  0  0  0  0  0  0
    1.3053    2.3629    0.4746 C   0  0  0  0  0  0  0  0  0  0  0  0
    1.7243    3.5997   -0.0548 C   0  0  0  0  0  0  0  0  0  0  0  0
    1.1057    4.7836    0.3607 C   0  0  0  0  0  0  0  0  0  0  0  0
    0.0987    4.7651    1.2887 C   0  0  0  0  0  0  0  0  0  0  0  0
   -0.2752    6.0872    1.4650 N   0  0  0  0  0  0  0  0  0  0  0  0
    0.4577    6.9305    0.6834 N   0  0  0  0  0  0  0  0  0  0  0  0
    1.2971    6.1764    0.0123 C   0  0  0  0  0  0  0  0  0  0  0  0
    2.5806    6.8407   -1.2392 Br  0  0  0  0  0  0  0  0  0  0  0  0
   -0.3298    3.5628    1.8511 C   0  0  0  0  0  0  0  0  0  0  0  0
    0.2799    2.3657    1.4456 C   0  0  0  0  0  0  0  0  0  0  0  0
   -0.0123   -1.9770   -1.7064 H   0  0  0  0  0  0  0  0  0  0  0  0
   -0.2843   -0.3460   -2.3564 H   0  0  0  0  0  0  0  0  0  0  0  0
   -1.6167   -1.2243   -1.5785 H   0  0  0  0  0  0  0  0  0  0  0  0
   -0.7312    0.5031   -0.0779 H   0  0  0  0  0  0  0  0  0  0  0  0
   -0.2526   -0.9451    1.9165 H   0  0  0  0  0  0  0  0  0  0  0  0
    0.0197   -2.3261    0.8369 H   0  0  0  0  0  0  0  0  0  0  0  0
   -1.5923   -1.5844    0.9419 H   0  0  0  0  0  0  0  0  0  0  0  0
    6.7862   -0.3206   -0.7573 H   0  0  0  0  0  0  0  0  0  0  0  0
    4.8385   -1.9175   -0.8590 H   0  0  0  0  0  0  0  0  0  0  0  0
    2.5212    3.6449   -0.7916 H   0  0  0  0  0  0  0  0  0  0  0  0
   -1.0029    6.3939    2.1099 H   0  0  0  0  0  0  0  0  0  0  0  0
   -1.1155    3.5541    2.6002 H   0  0  0  0  0  0  0  0  0  0  0  0
   -0.0339    1.4410    1.9167 H   0  0  0  0  0  0  0  0  0  0  0  0
  1  2  1  0
  1 27  1  0
  1 28  1  0
  1 29  1  0
  2  3  1  0
  2  4  1  0
  2 30  1  0
  3 31  1  0
  3 32  1  0
  3 33  1  0
  4  5  2  0
  4 16  1  0
  5  6  1  0
  6  7  2  0
  6 11  1  0
  7  8  1  0
  7 16  1  0
  8  9  2  0
  9 10  1  0
  9 12  1  0
 10 11  2  0
 10 34  1  0
 11 35  1  0
 12 13  1  0
 12 14  1  0
 12 15  1  0
 16 17  1  0
 17 18  2  0
 17 26  1  0
 18 19  1  0
 18 36  1  0
 19 20  2  0
 19 23  1  0
 20 21  1  0
 20 25  1  0
 21 22  1  0
 21 37  1  0
 22 23  2  0
 23 24  1  0
 25 26  2  0
 25 38  1  0
 26 39  1  0
M  END
>  <group_name>  (1) 
JNS

>  <molecule_index>  (1) 
01595

>  <conformer_index>  (1) 
02

>  <method>  (1) 
openff-1.3.0

>  <basis>  (1) 
smirnoff

>  <program>  (1) 
openmm

>  <initial_energy>  (1) 
157.22782848576884 kilocalorie / mole

>  <final_energy>  (1) 
145.08421689435147 kilocalorie / mole

$$$$
