JNS-01356-06
     RDKit          3D

 33 36  0  0  0  0  0  0  0  0999 V2000
   -1.5519   -3.3343    1.3292 F   0  0  0  0  0  0  0  0  0  0  0  0
   -0.6477   -2.7578    0.4836 C   0  0  0  0  0  0  0  0  0  0  0  0
   -0.7052   -3.4176   -0.7102 F   0  0  0  0  0  0  0  0  0  0  0  0
    0.5876   -2.9556    1.0295 F   0  0  0  0  0  0  0  0  0  0  0  0
   -0.9523   -1.2695    0.2703 C   0  0  0  0  0  0  0  0  0  0  0  0
   -2.1863   -0.7968    0.3232 N   0  0  0  0  0  0  0  0  0  0  0  0
   -2.0673    0.5767    0.2087 C   0  0  0  0  0  0  0  0  0  0  0  0
   -0.7494    0.9590    0.0811 C   0  0  0  0  0  0  0  0  0  0  0  0
   -0.3484    2.2385   -0.0492 N   0  0  0  0  0  0  0  0  0  0  0  0
   -1.3115    3.2034   -0.0458 C   0  0  0  0  0  0  0  0  0  0  0  0
   -2.6787    2.8594    0.0876 C   0  0  0  0  0  0  0  0  0  0  0  0
   -3.0723    1.5268    0.2171 C   0  0  0  0  0  0  0  0  0  0  0  0
   -0.9377    4.6849   -0.1818 C   0  0  0  0  0  0  0  0  0  0  0  0
    0.4115    4.8888   -0.2518 F   0  0  0  0  0  0  0  0  0  0  0  0
   -1.5093    5.2004   -1.3097 F   0  0  0  0  0  0  0  0  0  0  0  0
   -1.4166    5.3799    0.8919 F   0  0  0  0  0  0  0  0  0  0  0  0
   -0.0249   -0.2188    0.0812 N   0  0  0  0  0  0  0  0  0  0  0  0
    1.3563   -0.3097   -0.1854 C   0  0  0  0  0  0  0  0  0  0  0  0
    2.2495    0.6286    0.3684 C   0  0  0  0  0  0  0  0  0  0  0  0
    3.6128    0.5325    0.0966 C   0  0  0  0  0  0  0  0  0  0  0  0
    4.1159   -0.4587   -0.7169 C   0  0  0  0  0  0  0  0  0  0  0  0
    5.4875   -0.3116   -0.8090 N   0  0  0  0  0  0  0  0  0  0  0  0
    5.7331    0.7293   -0.0697 C   0  0  0  0  0  0  0  0  0  0  0  0
    7.0173    1.1163    0.0308 O   0  0  0  0  0  0  0  0  0  0  0  0
    4.6424    1.3118    0.5276 O   0  0  0  0  0  0  0  0  0  0  0  0
    3.2584   -1.3983   -1.3012 C   0  0  0  0  0  0  0  0  0  0  0  0
    3.9293   -2.7744   -2.4520 Br  0  0  0  0  0  0  0  0  0  0  0  0
    1.8823   -1.3105   -1.0336 C   0  0  0  0  0  0  0  0  0  0  0  0
   -3.4294    3.6445    0.0882 H   0  0  0  0  0  0  0  0  0  0  0  0
   -4.1124    1.2290    0.3208 H   0  0  0  0  0  0  0  0  0  0  0  0
    1.9034    1.4294    1.0153 H   0  0  0  0  0  0  0  0  0  0  0  0
    7.4874    0.4762   -0.5214 H   0  0  0  0  0  0  0  0  0  0  0  0
    1.2287   -2.0250   -1.5214 H   0  0  0  0  0  0  0  0  0  0  0  0
  1  2  1  0
  2  3  1  0
  2  4  1  0
  2  5  1  0
  5  6  2  0
  5 17  1  0
  6  7  1  0
  7  8  2  0
  7 12  1  0
  8  9  1  0
  8 17  1  0
  9 10  2  0
 10 11  1  0
 10 13  1  0
 11 12  2  0
 11 29  1  0
 12 30  1  0
 13 14  1  0
 13 15  1  0
 13 16  1  0
 17 18  1  0
 18 19  2  0
 18 28  1  0
 19 20  1  0
 19 31  1  0
 20 21  2  0
 20 25  1  0
 21 22  1  0
 21 26  1  0
 22 23  2  0
 23 24  1  0
 23 25  1  0
 24 32  1  0
 26 27  1  0
 26 28  2  0
 28 33  1  0
M  END
>  <group_name>  (1) 
JNS

>  <molecule_index>  (1) 
01356

>  <conformer_index>  (1) 
06

>  <method>  (1) 
openff-1.3.0

>  <basis>  (1) 
smirnoff

>  <program>  (1) 
openmm

>  <initial_energy>  (1) 
129.8439458217321 kilocalorie / mole

>  <final_energy>  (1) 
115.29048183912104 kilocalorie / mole

$$$$
