JNS-01494-03
     RDKit          3D

 42 45  0  0  0  0  0  0  0  0999 V2000
   -0.1626   -2.0152    1.8927 C   0  0  0  0  0  0  0  0  0  0  0  0
   -0.5422   -0.5522    1.6307 C   0  0  0  0  0  0  0  0  0  0  0  0
   -0.0997    0.0443    0.2730 C   0  0  2  0  0  0  0  0  0  0  0  0
   -0.6213   -0.7669   -0.9236 C   0  0  0  0  0  0  0  0  0  0  0  0
    1.4094    0.2367    0.1726 C   0  0  0  0  0  0  0  0  0  0  0  0
    2.2381   -0.7848    0.1437 N   0  0  0  0  0  0  0  0  0  0  0  0
    3.5043   -0.2265    0.1653 C   0  0  0  0  0  0  0  0  0  0  0  0
    3.4490    1.1520    0.1960 C   0  0  0  0  0  0  0  0  0  0  0  0
    4.5369    1.9478    0.2272 N   0  0  0  0  0  0  0  0  0  0  0  0
    5.7578    1.3411    0.2318 C   0  0  0  0  0  0  0  0  0  0  0  0
    5.8650   -0.0711    0.2028 C   0  0  0  0  0  0  0  0  0  0  0  0
    4.7249   -0.8756    0.1689 C   0  0  0  0  0  0  0  0  0  0  0  0
    7.0462    2.1729    0.2763 C   0  0  0  0  0  0  0  0  0  0  0  0
    6.8121    3.5157    0.3774 F   0  0  0  0  0  0  0  0  0  0  0  0
    7.7785    1.9496   -0.8546 F   0  0  0  0  0  0  0  0  0  0  0  0
    7.8021    1.7963    1.3500 F   0  0  0  0  0  0  0  0  0  0  0  0
    2.1034    1.4607    0.1525 N   0  0  0  0  0  0  0  0  0  0  0  0
    1.5794    2.7566   -0.0167 C   0  0  0  0  0  0  0  0  0  0  0  0
    0.5422    3.0154   -0.9360 C   0  0  0  0  0  0  0  0  0  0  0  0
    0.0508    4.3165   -1.0812 C   0  0  0  0  0  0  0  0  0  0  0  0
    0.5734    5.3545   -0.3567 C   0  0  0  0  0  0  0  0  0  0  0  0
   -0.1295    6.4811   -0.7498 N   0  0  0  0  0  0  0  0  0  0  0  0
   -1.0704    6.1870   -1.6938 N   0  0  0  0  0  0  0  0  0  0  0  0
   -0.9807    4.8957   -1.9136 C   0  0  0  0  0  0  0  0  0  0  0  0
    1.6169    5.1411    0.5435 C   0  0  0  0  0  0  0  0  0  0  0  0
    2.1191    3.8416    0.7064 C   0  0  0  0  0  0  0  0  0  0  0  0
    0.9223   -2.1425    1.9304 H   0  0  0  0  0  0  0  0  0  0  0  0
   -0.5678   -2.3308    2.8588 H   0  0  0  0  0  0  0  0  0  0  0  0
   -0.5745   -2.6740    1.1233 H   0  0  0  0  0  0  0  0  0  0  0  0
   -0.1309    0.0656    2.4358 H   0  0  0  0  0  0  0  0  0  0  0  0
   -1.6323   -0.4750    1.6980 H   0  0  0  0  0  0  0  0  0  0  0  0
   -0.5765    1.0244    0.2326 H   0  0  0  0  0  0  0  0  0  0  0  0
   -0.4047   -0.2412   -1.8585 H   0  0  0  0  0  0  0  0  0  0  0  0
   -0.1429   -1.7502   -0.9718 H   0  0  0  0  0  0  0  0  0  0  0  0
   -1.7041   -0.9060   -0.8476 H   0  0  0  0  0  0  0  0  0  0  0  0
    6.8480   -0.5325    0.2073 H   0  0  0  0  0  0  0  0  0  0  0  0
    4.7717   -1.9606    0.1471 H   0  0  0  0  0  0  0  0  0  0  0  0
    0.1335    2.2241   -1.5556 H   0  0  0  0  0  0  0  0  0  0  0  0
    0.0479    7.4177   -0.3856 H   0  0  0  0  0  0  0  0  0  0  0  0
   -1.5945    4.3425   -2.6181 H   0  0  0  0  0  0  0  0  0  0  0  0
    2.0414    5.9654    1.1081 H   0  0  0  0  0  0  0  0  0  0  0  0
    2.9343    3.6767    1.4056 H   0  0  0  0  0  0  0  0  0  0  0  0
  1  2  1  0
  1 27  1  0
  1 28  1  0
  1 29  1  0
  2  3  1  0
  2 30  1  0
  2 31  1  0
  3  4  1  0
  3  5  1  0
  3 32  1  6
  4 33  1  0
  4 34  1  0
  4 35  1  0
  5  6  2  0
  5 17  1  0
  6  7  1  0
  7  8  2  0
  7 12  1  0
  8  9  1  0
  8 17  1  0
  9 10  2  0
 10 11  1  0
 10 13  1  0
 11 12  2  0
 11 36  1  0
 12 37  1  0
 13 14  1  0
 13 15  1  0
 13 16  1  0
 17 18  1  0
 18 19  2  0
 18 26  1  0
 19 20  1  0
 19 38  1  0
 20 21  2  0
 20 24  1  0
 21 22  1  0
 21 25  1  0
 22 23  1  0
 22 39  1  0
 23 24  2  0
 24 40  1  0
 25 26  2  0
 25 41  1  0
 26 42  1  0
M  END
>  <group_name>  (1) 
JNS

>  <molecule_index>  (1) 
01494

>  <conformer_index>  (1) 
03

>  <method>  (1) 
openff-1.3.0

>  <basis>  (1) 
smirnoff

>  <program>  (1) 
openmm

>  <initial_energy>  (1) 
163.39904596492116 kilocalorie / mole

>  <final_energy>  (1) 
152.42108000276616 kilocalorie / mole

$$$$
