JNS-02466-03
     RDKit          3D

 53 56  0  0  0  0  0  0  0  0999 V2000
    0.3658    0.2770    0.1168 C   0  0  0  0  0  0  0  0  0  0  0  0
   -0.0229   -1.1650   -0.2549 C   0  0  2  0  0  0  0  0  0  0  0  0
    1.1519   -1.9369   -0.7395 N   0  0  0  0  0  0  0  0  0  0  0  0
    1.6155   -1.6270   -2.1149 C   0  0  0  0  0  0  0  0  0  0  0  0
    3.0836   -2.0104   -2.3492 C   0  0  0  0  0  0  0  0  0  0  0  0
    3.4041   -3.3718   -1.7228 C   0  0  0  0  0  0  0  0  0  0  0  0
    3.0368   -3.4223   -0.2191 C   0  0  2  0  0  0  0  0  0  0  0  0
    2.2123   -2.2090    0.2479 C   0  0  0  0  0  0  0  0  0  0  0  0
    4.2657   -3.5579    0.6565 C   0  0  0  0  0  0  0  0  0  0  0  0
    4.4196   -4.6373    1.5207 C   0  0  0  0  0  0  0  0  0  0  0  0
    5.5628   -4.7629    2.3327 C   0  0  0  0  0  0  0  0  0  0  0  0
    6.5486   -3.8273    2.2893 N   0  0  0  0  0  0  0  0  0  0  0  0
    6.4164   -2.7818    1.4561 C   0  0  0  0  0  0  0  0  0  0  0  0
    7.5212   -1.7660    1.4264 C   0  0  0  0  0  0  0  0  0  0  0  0
    5.2956   -2.6216    0.6353 C   0  0  0  0  0  0  0  0  0  0  0  0
    5.6661   -5.9769    3.2653 C   0  0  0  0  0  0  0  0  0  0  0  0
    6.8138   -5.9879    4.0068 F   0  0  0  0  0  0  0  0  0  0  0  0
    5.6238   -7.1278    2.5306 F   0  0  0  0  0  0  0  0  0  0  0  0
    4.6050   -5.9877    4.1259 F   0  0  0  0  0  0  0  0  0  0  0  0
   -1.1892   -1.2305   -1.2457 C   0  0  0  0  0  0  0  0  0  0  0  0
   -1.5521   -0.1400   -1.9575 N   0  0  0  0  0  0  0  0  0  0  0  0
   -2.5881   -0.2453   -2.8081 C   0  0  0  0  0  0  0  0  0  0  0  0
   -3.3019   -1.4584   -3.0058 C   0  0  0  0  0  0  0  0  0  0  0  0
   -4.3403   -1.5813   -3.9115 O   0  0  0  0  0  0  0  0  0  0  0  0
   -4.4512   -0.4790   -4.8297 C   0  0  0  0  0  0  0  0  0  0  0  0
   -4.2315    0.8546   -4.1160 C   0  0  0  0  0  0  0  0  0  0  0  0
   -2.9384    0.9029   -3.4871 O   0  0  0  0  0  0  0  0  0  0  0  0
   -2.9372   -2.5720   -2.2621 C   0  0  0  0  0  0  0  0  0  0  0  0
   -1.8724   -2.4481   -1.3771 C   0  0  0  0  0  0  0  0  0  0  0  0
    1.1406    0.2819    0.8880 H   0  0  0  0  0  0  0  0  0  0  0  0
   -0.5062    0.8079    0.5106 H   0  0  0  0  0  0  0  0  0  0  0  0
    0.7365    0.8243   -0.7544 H   0  0  0  0  0  0  0  0  0  0  0  0
   -0.3744   -1.6406    0.6663 H   0  0  0  0  0  0  0  0  0  0  0  0
    1.5087   -0.5585   -2.3266 H   0  0  0  0  0  0  0  0  0  0  0  0
    0.9803   -2.1600   -2.8302 H   0  0  0  0  0  0  0  0  0  0  0  0
    3.7296   -1.2488   -1.9022 H   0  0  0  0  0  0  0  0  0  0  0  0
    3.2928   -2.0265   -3.4230 H   0  0  0  0  0  0  0  0  0  0  0  0
    2.8246   -4.1369   -2.2499 H   0  0  0  0  0  0  0  0  0  0  0  0
    4.4607   -3.6146   -1.8755 H   0  0  0  0  0  0  0  0  0  0  0  0
    2.4080   -4.3076   -0.0800 H   0  0  0  0  0  0  0  0  0  0  0  0
    1.7791   -2.4308    1.2288 H   0  0  0  0  0  0  0  0  0  0  0  0
    2.8510   -1.3266    0.3586 H   0  0  0  0  0  0  0  0  0  0  0  0
    3.6501   -5.4013    1.5767 H   0  0  0  0  0  0  0  0  0  0  0  0
    7.6547   -1.3387    2.4242 H   0  0  0  0  0  0  0  0  0  0  0  0
    8.4550   -2.2476    1.1230 H   0  0  0  0  0  0  0  0  0  0  0  0
    7.2975   -0.9580    0.7247 H   0  0  0  0  0  0  0  0  0  0  0  0
    5.2351   -1.7617   -0.0224 H   0  0  0  0  0  0  0  0  0  0  0  0
   -5.4453   -0.4866   -5.2863 H   0  0  0  0  0  0  0  0  0  0  0  0
   -3.7129   -0.5913   -5.6300 H   0  0  0  0  0  0  0  0  0  0  0  0
   -5.0127    0.9987   -3.3625 H   0  0  0  0  0  0  0  0  0  0  0  0
   -4.3112    1.6706   -4.8404 H   0  0  0  0  0  0  0  0  0  0  0  0
   -3.4680   -3.5119   -2.3866 H   0  0  0  0  0  0  0  0  0  0  0  0
   -1.5438   -3.2997   -0.7902 H   0  0  0  0  0  0  0  0  0  0  0  0
  1  2  1  0
  1 30  1  0
  1 31  1  0
  1 32  1  0
  2  3  1  0
  2 20  1  0
  2 33  1  1
  3  4  1  0
  3  8  1  0
  4  5  1  0
  4 34  1  0
  4 35  1  0
  5  6  1  0
  5 36  1  0
  5 37  1  0
  6  7  1  0
  6 38  1  0
  6 39  1  0
  7  8  1  0
  7  9  1  0
  7 40  1  6
  8 41  1  0
  8 42  1  0
  9 10  2  0
  9 15  1  0
 10 11  1  0
 10 43  1  0
 11 12  2  0
 11 16  1  0
 12 13  1  0
 13 14  1  0
 13 15  2  0
 14 44  1  0
 14 45  1  0
 14 46  1  0
 15 47  1  0
 16 17  1  0
 16 18  1  0
 16 19  1  0
 20 21  2  0
 20 29  1  0
 21 22  1  0
 22 23  2  0
 22 27  1  0
 23 24  1  0
 23 28  1  0
 24 25  1  0
 25 26  1  0
 25 48  1  0
 25 49  1  0
 26 27  1  0
 26 50  1  0
 26 51  1  0
 28 29  2  0
 28 52  1  0
 29 53  1  0
M  END
>  <group_name>  (1) 
JNS

>  <molecule_index>  (1) 
02466

>  <conformer_index>  (1) 
03

>  <method>  (1) 
openff-1.3.0

>  <basis>  (1) 
smirnoff

>  <program>  (1) 
openmm

>  <initial_energy>  (1) 
118.72987211577872 kilocalorie / mole

>  <final_energy>  (1) 
110.5122861227632 kilocalorie / mole

$$$$
