MRK-00792-02
     RDKit          3D

 54 56  0  0  0  0  0  0  0  0999 V2000
   -2.2134   -3.4422   -0.3914 O   0  0  0  0  0  0  0  0  0  0  0  0
   -3.2924   -2.9859   -0.7577 C   0  0  0  0  0  0  0  0  0  0  0  0
   -3.6803   -3.1254   -2.0675 N   0  0  0  0  0  0  0  0  0  0  0  0
   -2.7061   -3.4461   -3.1177 C   0  0  0  0  0  0  0  0  0  0  0  0
   -2.0645   -2.2096   -3.7248 C   0  0  0  0  0  0  0  0  0  0  0  0
   -1.1605   -2.3775   -4.7800 C   0  0  0  0  0  0  0  0  0  0  0  0
   -0.5767   -1.2736   -5.3880 C   0  0  0  0  0  0  0  0  0  0  0  0
   -0.9309   -0.0159   -4.9162 C   0  0  0  0  0  0  0  0  0  0  0  0
   -1.8439    0.1219   -3.8546 C   0  0  0  0  0  0  0  0  0  0  0  0
   -2.1944    1.5352   -3.3693 C   0  0  0  0  0  0  0  0  0  0  0  0
   -2.9329    1.5191   -2.2167 F   0  0  0  0  0  0  0  0  0  0  0  0
   -2.9000    2.2013   -4.3255 F   0  0  0  0  0  0  0  0  0  0  0  0
   -1.0564    2.2368   -3.0964 F   0  0  0  0  0  0  0  0  0  0  0  0
   -2.3917   -0.9773   -3.2572 N   0  0  0  0  0  0  0  0  0  0  0  0
   -4.1336   -2.1241    0.1885 C   0  0  1  0  0  0  0  0  0  0  0  0
   -3.7943   -2.2980    1.6705 C   0  0  0  0  0  0  0  0  0  0  0  0
   -2.4967   -1.5153    1.8355 C   0  0  0  0  0  0  0  0  0  0  0  0
   -2.5477   -0.4645    0.7938 N   0  0  1  0  0  0  0  0  0  0  0  0
   -1.3264   -0.4763   -0.0335 C   0  0  0  0  0  0  0  0  0  0  0  0
   -0.3280    0.4412    0.6101 C   0  0  0  0  0  0  0  0  0  0  0  0
    0.6265   -0.0663    1.5029 C   0  0  0  0  0  0  0  0  0  0  0  0
    1.5800    0.7826    2.0735 C   0  0  0  0  0  0  0  0  0  0  0  0
    1.5970    2.1394    1.7359 C   0  0  0  0  0  0  0  0  0  0  0  0
    0.6767    2.6580    0.8226 C   0  0  0  0  0  0  0  0  0  0  0  0
    0.7493    3.9953    0.5043 O   0  0  0  0  0  0  0  0  0  0  0  0
    0.7946    4.3354   -0.9040 C   0  0  0  0  0  0  0  0  0  0  0  0
    1.9640    3.7439   -1.7074 C   0  0  0  0  0  0  0  0  0  0  0  0
    3.1485    4.0262   -1.0979 F   0  0  0  0  0  0  0  0  0  0  0  0
    1.8382    2.3944   -1.8578 F   0  0  0  0  0  0  0  0  0  0  0  0
    1.9553    4.3036   -2.9485 F   0  0  0  0  0  0  0  0  0  0  0  0
   -0.2945    1.8047    0.2744 C   0  0  0  0  0  0  0  0  0  0  0  0
   -3.7642   -0.6613   -0.0230 C   0  0  0  0  0  0  0  0  0  0  0  0
   -4.4980   -2.5930   -2.3520 H   0  0  0  0  0  0  0  0  0  0  0  0
   -1.9163   -4.0942   -2.7222 H   0  0  0  0  0  0  0  0  0  0  0  0
   -3.2048   -4.0116   -3.9109 H   0  0  0  0  0  0  0  0  0  0  0  0
   -0.9160   -3.3765   -5.1294 H   0  0  0  0  0  0  0  0  0  0  0  0
    0.1284   -1.3889   -6.2099 H   0  0  0  0  0  0  0  0  0  0  0  0
   -0.4996    0.8709   -5.3744 H   0  0  0  0  0  0  0  0  0  0  0  0
   -5.1928   -2.3130   -0.0077 H   0  0  0  0  0  0  0  0  0  0  0  0
   -4.5784   -1.8475    2.2890 H   0  0  0  0  0  0  0  0  0  0  0  0
   -3.6789   -3.3489    1.9603 H   0  0  0  0  0  0  0  0  0  0  0  0
   -2.4068   -1.1056    2.8495 H   0  0  0  0  0  0  0  0  0  0  0  0
   -1.6478   -2.1903    1.6630 H   0  0  0  0  0  0  0  0  0  0  0  0
   -1.5298   -0.1349   -1.0551 H   0  0  0  0  0  0  0  0  0  0  0  0
   -0.9104   -1.4892   -0.1195 H   0  0  0  0  0  0  0  0  0  0  0  0
    0.6426   -1.1232    1.7572 H   0  0  0  0  0  0  0  0  0  0  0  0
    2.3174    0.3890    2.7695 H   0  0  0  0  0  0  0  0  0  0  0  0
    2.3422    2.8019    2.1678 H   0  0  0  0  0  0  0  0  0  0  0  0
   -0.1400    4.0560   -1.3939 H   0  0  0  0  0  0  0  0  0  0  0  0
    0.8725    5.4234   -0.9790 H   0  0  0  0  0  0  0  0  0  0  0  0
   -1.0197    2.2129   -0.4205 H   0  0  0  0  0  0  0  0  0  0  0  0
   -3.6037   -0.4453   -1.0885 H   0  0  0  0  0  0  0  0  0  0  0  0
   -4.5777   -0.0174    0.3355 H   0  0  0  0  0  0  0  0  0  0  0  0
   -2.5791    0.4530    1.2493 H   0  0  0  0  0  0  0  0  0  0  0  0
  1  2  2  0
  2  3  1  0
  2 15  1  0
  3  4  1  0
  3 33  1  0
  4  5  1  0
  4 34  1  0
  4 35  1  0
  5  6  2  0
  5 14  1  0
  6  7  1  0
  6 36  1  0
  7  8  2  0
  7 37  1  0
  8  9  1  0
  8 38  1  0
  9 10  1  0
  9 14  2  0
 10 11  1  0
 10 12  1  0
 10 13  1  0
 15 16  1  0
 15 32  1  0
 15 39  1  1
 16 17  1  0
 16 40  1  0
 16 41  1  0
 17 18  1  0
 17 42  1  0
 17 43  1  0
 18 19  1  0
 18 32  1  0
 18 54  1  1
 19 20  1  0
 19 44  1  0
 19 45  1  0
 20 21  2  0
 20 31  1  0
 21 22  1  0
 21 46  1  0
 22 23  2  0
 22 47  1  0
 23 24  1  0
 23 48  1  0
 24 25  1  0
 24 31  2  0
 25 26  1  0
 26 27  1  0
 26 49  1  0
 26 50  1  0
 27 28  1  0
 27 29  1  0
 27 30  1  0
 31 51  1  0
 32 52  1  0
 32 53  1  0
M  CHG  1  18   1
M  END
>  <group_name>  (1) 
MRK

>  <molecule_index>  (1) 
00792

>  <conformer_index>  (1) 
02

>  <method>  (1) 
openff-1.3.0

>  <basis>  (1) 
smirnoff

>  <program>  (1) 
openmm

>  <initial_energy>  (1) 
165.72422189614758 kilocalorie / mole

>  <final_energy>  (1) 
142.66205010393878 kilocalorie / mole

$$$$
