MRK-01088-06
     RDKit          3D

 48 50  0  0  0  0  0  0  0  0999 V2000
    0.2704   -2.4235    0.1630 C   0  0  0  0  0  0  0  0  0  0  0  0
    0.3570   -1.1330   -0.6829 C   0  0  1  0  0  0  0  0  0  0  0  0
   -0.8857   -1.1828   -1.4414 O   0  0  0  0  0  0  0  0  0  0  0  0
    0.3993    0.2105    0.1037 C   0  0  0  0  0  0  0  0  0  0  0  0
   -0.2015    1.1494   -0.4251 O   0  0  0  0  0  0  0  0  0  0  0  0
    0.9680    0.4487    1.3626 N   0  0  0  0  0  0  0  0  0  0  0  0
    1.8233   -0.5168    2.0689 C   0  0  0  0  0  0  0  0  0  0  0  0
    2.8247    0.2026    2.9775 C   0  0  0  0  0  0  0  0  0  0  0  0
    2.1415    1.1163    4.0135 C   0  0  0  0  0  0  0  0  0  0  0  0
    2.0421    0.4251    5.3636 C   0  0  0  0  0  0  0  0  0  0  0  0
    1.1765   -0.5899    5.6643 C   0  0  0  0  0  0  0  0  0  0  0  0
    1.3142   -0.8425    7.0732 C   0  0  0  0  0  0  0  0  0  0  0  0
    2.2049   -0.0407    7.5895 N   0  0  0  0  0  0  0  0  0  0  0  0
    2.6973    0.7150    6.5701 N   0  0  0  0  0  0  0  0  0  0  0  0
    3.7805    1.5870    6.7704 C   0  0  0  0  0  0  0  0  0  0  0  0
    4.7617    1.8096    5.8005 C   0  0  0  0  0  0  0  0  0  0  0  0
    5.8048    2.6838    6.0966 C   0  0  0  0  0  0  0  0  0  0  0  0
    5.8803    3.3226    7.3493 C   0  0  0  0  0  0  0  0  0  0  0  0
    7.0497    4.2791    7.6142 C   0  0  0  0  0  0  0  0  0  0  0  0
    7.0229    5.2940    6.7006 F   0  0  0  0  0  0  0  0  0  0  0  0
    8.2310    3.6101    7.4654 F   0  0  0  0  0  0  0  0  0  0  0  0
    7.0221    4.8277    8.8647 F   0  0  0  0  0  0  0  0  0  0  0  0
    4.9385    3.0843    8.2987 N   0  0  0  0  0  0  0  0  0  0  0  0
    3.9315    2.2318    8.0107 C   0  0  0  0  0  0  0  0  0  0  0  0
    0.7537    1.5942    3.5400 C   0  0  0  0  0  0  0  0  0  0  0  0
    0.7075    1.7441    2.0182 C   0  0  0  0  0  0  0  0  0  0  0  0
    1.5892   -1.1194   -1.6324 C   0  0  0  0  0  0  0  0  0  0  0  0
    1.5393   -0.0582   -2.4874 F   0  0  0  0  0  0  0  0  0  0  0  0
    2.7627   -1.0485   -0.9435 F   0  0  0  0  0  0  0  0  0  0  0  0
    1.6280   -2.2567   -2.3848 F   0  0  0  0  0  0  0  0  0  0  0  0
   -0.4949   -2.3170    0.9381 H   0  0  0  0  0  0  0  0  0  0  0  0
   -0.0063   -3.2716   -0.4729 H   0  0  0  0  0  0  0  0  0  0  0  0
    1.2237   -2.6837    0.6257 H   0  0  0  0  0  0  0  0  0  0  0  0
   -1.0439   -0.3087   -1.8550 H   0  0  0  0  0  0  0  0  0  0  0  0
    1.2053   -1.1963    2.6647 H   0  0  0  0  0  0  0  0  0  0  0  0
    2.4112   -1.1108    1.3692 H   0  0  0  0  0  0  0  0  0  0  0  0
    3.4677   -0.5280    3.4792 H   0  0  0  0  0  0  0  0  0  0  0  0
    3.4730    0.8155    2.3421 H   0  0  0  0  0  0  0  0  0  0  0  0
    2.7531    2.0160    4.1196 H   0  0  0  0  0  0  0  0  0  0  0  0
    0.4794   -1.0846    4.9977 H   0  0  0  0  0  0  0  0  0  0  0  0
    0.7449   -1.5794    7.6324 H   0  0  0  0  0  0  0  0  0  0  0  0
    4.7452    1.2953    4.8452 H   0  0  0  0  0  0  0  0  0  0  0  0
    6.5791    2.8731    5.3583 H   0  0  0  0  0  0  0  0  0  0  0  0
    3.1927    2.0599    8.7884 H   0  0  0  0  0  0  0  0  0  0  0  0
    0.5102    2.5464    4.0220 H   0  0  0  0  0  0  0  0  0  0  0  0
   -0.0256    0.8825    3.8271 H   0  0  0  0  0  0  0  0  0  0  0  0
    1.4449    2.4837    1.6885 H   0  0  0  0  0  0  0  0  0  0  0  0
   -0.2852    2.1234    1.7509 H   0  0  0  0  0  0  0  0  0  0  0  0
  1  2  1  0
  1 31  1  0
  1 32  1  0
  1 33  1  0
  2  3  1  6
  2  4  1  0
  2 27  1  0
  3 34  1  0
  4  5  2  0
  4  6  1  0
  6  7  1  0
  6 26  1  0
  7  8  1  0
  7 35  1  0
  7 36  1  0
  8  9  1  0
  8 37  1  0
  8 38  1  0
  9 10  1  0
  9 25  1  0
  9 39  1  0
 10 11  2  0
 10 14  1  0
 11 12  1  0
 11 40  1  0
 12 13  2  0
 12 41  1  0
 13 14  1  0
 14 15  1  0
 15 16  2  0
 15 24  1  0
 16 17  1  0
 16 42  1  0
 17 18  2  0
 17 43  1  0
 18 19  1  0
 18 23  1  0
 19 20  1  0
 19 21  1  0
 19 22  1  0
 23 24  2  0
 24 44  1  0
 25 26  1  0
 25 45  1  0
 25 46  1  0
 26 47  1  0
 26 48  1  0
 27 28  1  0
 27 29  1  0
 27 30  1  0
M  END
>  <group_name>  (1) 
MRK

>  <molecule_index>  (1) 
01088

>  <conformer_index>  (1) 
06

>  <method>  (1) 
openff-1.3.0

>  <basis>  (1) 
smirnoff

>  <program>  (1) 
openmm

>  <initial_energy>  (1) 
175.57601464508906 kilocalorie / mole

>  <final_energy>  (1) 
157.04512219833867 kilocalorie / mole

$$$$
