MRK-01088-00
     RDKit          3D

 48 50  0  0  0  0  0  0  0  0999 V2000
    1.6774    1.0808   -1.5602 C   0  0  0  0  0  0  0  0  0  0  0  0
    0.9215    0.2059   -0.5310 C   0  0  1  0  0  0  0  0  0  0  0  0
    1.7547   -0.9906   -0.4650 O   0  0  0  0  0  0  0  0  0  0  0  0
    0.7532    0.9723    0.8150 C   0  0  0  0  0  0  0  0  0  0  0  0
    0.7140    2.2034    0.7710 O   0  0  0  0  0  0  0  0  0  0  0  0
    0.7483    0.3944    2.0894 N   0  0  0  0  0  0  0  0  0  0  0  0
    0.6868   -1.0455    2.3447 C   0  0  0  0  0  0  0  0  0  0  0  0
    1.9456   -1.5140    3.0939 C   0  0  0  0  0  0  0  0  0  0  0  0
    2.5403   -0.4340    4.0399 C   0  0  0  0  0  0  0  0  0  0  0  0
    3.3327   -1.0024    5.2154 C   0  0  0  0  0  0  0  0  0  0  0  0
    3.5661   -2.3291    5.4676 C   0  0  0  0  0  0  0  0  0  0  0  0
    4.2517   -2.4001    6.7283 C   0  0  0  0  0  0  0  0  0  0  0  0
    4.4395   -1.2024    7.2071 N   0  0  0  0  0  0  0  0  0  0  0  0
    3.9413   -0.3282    6.2910 N   0  0  0  0  0  0  0  0  0  0  0  0
    4.1266    1.0557    6.4527 C   0  0  0  0  0  0  0  0  0  0  0  0
    4.3824    1.9195    5.3840 C   0  0  0  0  0  0  0  0  0  0  0  0
    4.5504    3.2762    5.6496 C   0  0  0  0  0  0  0  0  0  0  0  0
    4.4795    3.7705    6.9660 C   0  0  0  0  0  0  0  0  0  0  0  0
    4.6668    5.2754    7.1947 C   0  0  0  0  0  0  0  0  0  0  0  0
    3.7010    5.9624    6.5162 F   0  0  0  0  0  0  0  0  0  0  0  0
    5.8820    5.6657    6.7086 F   0  0  0  0  0  0  0  0  0  0  0  0
    4.5988    5.6305    8.5119 F   0  0  0  0  0  0  0  0  0  0  0  0
    4.2583    2.9242    8.0053 N   0  0  0  0  0  0  0  0  0  0  0  0
    4.1016    1.6084    7.7450 C   0  0  0  0  0  0  0  0  0  0  0  0
    1.3993    0.4982    4.4964 C   0  0  0  0  0  0  0  0  0  0  0  0
    0.8497    1.2586    3.2759 C   0  0  0  0  0  0  0  0  0  0  0  0
   -0.5225   -0.0962   -1.0188 C   0  0  0  0  0  0  0  0  0  0  0  0
   -1.2484    1.0389   -1.2242 F   0  0  0  0  0  0  0  0  0  0  0  0
   -0.4608   -0.7799   -2.1996 F   0  0  0  0  0  0  0  0  0  0  0  0
   -1.1993   -0.8817   -0.1337 F   0  0  0  0  0  0  0  0  0  0  0  0
    1.1311    2.0078   -1.7650 H   0  0  0  0  0  0  0  0  0  0  0  0
    2.6640    1.3522   -1.1708 H   0  0  0  0  0  0  0  0  0  0  0  0
    1.8090    0.5528   -2.5097 H   0  0  0  0  0  0  0  0  0  0  0  0
    1.7837   -1.4365   -1.3318 H   0  0  0  0  0  0  0  0  0  0  0  0
   -0.1933   -1.2418    2.9667 H   0  0  0  0  0  0  0  0  0  0  0  0
    0.5423   -1.6485    1.4477 H   0  0  0  0  0  0  0  0  0  0  0  0
    1.6521   -2.4070    3.6506 H   0  0  0  0  0  0  0  0  0  0  0  0
    2.7161   -1.8058    2.3731 H   0  0  0  0  0  0  0  0  0  0  0  0
    3.2326    0.1501    3.4290 H   0  0  0  0  0  0  0  0  0  0  0  0
    3.2755   -3.1863    4.8722 H   0  0  0  0  0  0  0  0  0  0  0  0
    4.5534   -3.3193    7.2219 H   0  0  0  0  0  0  0  0  0  0  0  0
    4.4864    1.5583    4.3676 H   0  0  0  0  0  0  0  0  0  0  0  0
    4.7482    3.9662    4.8338 H   0  0  0  0  0  0  0  0  0  0  0  0
    3.9241    0.9550    8.5946 H   0  0  0  0  0  0  0  0  0  0  0  0
    1.7346    1.2243    5.2400 H   0  0  0  0  0  0  0  0  0  0  0  0
    0.6084   -0.0962    4.9656 H   0  0  0  0  0  0  0  0  0  0  0  0
    1.5323    2.0896    3.0657 H   0  0  0  0  0  0  0  0  0  0  0  0
   -0.1294    1.6873    3.5142 H   0  0  0  0  0  0  0  0  0  0  0  0
  1  2  1  0
  1 31  1  0
  1 32  1  0
  1 33  1  0
  2  3  1  1
  2  4  1  0
  2 27  1  0
  3 34  1  0
  4  5  2  0
  4  6  1  0
  6  7  1  0
  6 26  1  0
  7  8  1  0
  7 35  1  0
  7 36  1  0
  8  9  1  0
  8 37  1  0
  8 38  1  0
  9 10  1  0
  9 25  1  0
  9 39  1  0
 10 11  2  0
 10 14  1  0
 11 12  1  0
 11 40  1  0
 12 13  2  0
 12 41  1  0
 13 14  1  0
 14 15  1  0
 15 16  2  0
 15 24  1  0
 16 17  1  0
 16 42  1  0
 17 18  2  0
 17 43  1  0
 18 19  1  0
 18 23  1  0
 19 20  1  0
 19 21  1  0
 19 22  1  0
 23 24  2  0
 24 44  1  0
 25 26  1  0
 25 45  1  0
 25 46  1  0
 26 47  1  0
 26 48  1  0
 27 28  1  0
 27 29  1  0
 27 30  1  0
M  END
>  <group_name>  (1) 
MRK

>  <molecule_index>  (1) 
01088

>  <conformer_index>  (1) 
00

>  <method>  (1) 
openff-1.3.0

>  <basis>  (1) 
smirnoff

>  <program>  (1) 
openmm

>  <initial_energy>  (1) 
175.6600969819494 kilocalorie / mole

>  <final_energy>  (1) 
158.75321749435233 kilocalorie / mole

$$$$
