MRK-00538-05
     RDKit          3D

 43 45  0  0  0  0  0  0  0  0999 V2000
    0.9680   -2.6509    0.8654 O   0  0  0  0  0  0  0  0  0  0  0  0
    0.4668   -1.5597    1.1260 C   0  0  0  0  0  0  0  0  0  0  0  0
   -0.7336   -1.2225    0.5365 N   0  0  0  0  0  0  0  0  0  0  0  0
   -1.1940   -1.8898   -0.6711 C   0  0  0  0  0  0  0  0  0  0  0  0
   -0.5085   -1.2102   -1.8296 C   0  0  0  0  0  0  0  0  0  0  0  0
    0.7015   -1.7136   -2.3305 C   0  0  0  0  0  0  0  0  0  0  0  0
    1.3486   -1.0892   -3.4007 C   0  0  0  0  0  0  0  0  0  0  0  0
    2.5290   -1.5720   -3.8627 F   0  0  0  0  0  0  0  0  0  0  0  0
    0.7747    0.0427   -3.9842 C   0  0  0  0  0  0  0  0  0  0  0  0
   -0.4303    0.5596   -3.5010 C   0  0  0  0  0  0  0  0  0  0  0  0
   -1.1287    1.9790   -4.2286 Cl  0  0  0  0  0  0  0  0  0  0  0  0
   -1.0684   -0.0707   -2.4274 C   0  0  0  0  0  0  0  0  0  0  0  0
    1.2662   -0.5134    1.9281 C   0  0  1  0  0  0  0  0  0  0  0  0
    0.8244   -0.3424    3.3044 O   0  0  0  0  0  0  0  0  0  0  0  0
    2.7854   -0.7364    1.8932 C   0  0  0  0  0  0  0  0  0  0  0  0
    3.2081   -0.2679    0.4970 C   0  0  0  0  0  0  0  0  0  0  0  0
    2.2901    0.8344    0.2282 N   0  0  0  0  0  0  0  0  0  0  0  0
    2.3756    1.6411   -0.9357 C   0  0  0  0  0  0  0  0  0  0  0  0
    3.3151    1.3384   -1.9300 C   0  0  0  0  0  0  0  0  0  0  0  0
    3.3622    2.1244   -3.0787 C   0  0  0  0  0  0  0  0  0  0  0  0
    2.4881    3.2126   -3.2485 C   0  0  0  0  0  0  0  0  0  0  0  0
    2.5663    4.0162   -4.5508 C   0  0  0  0  0  0  0  0  0  0  0  0
    2.3148    3.1874   -5.6075 F   0  0  0  0  0  0  0  0  0  0  0  0
    1.6785    5.0529   -4.5980 F   0  0  0  0  0  0  0  0  0  0  0  0
    3.8256    4.5225   -4.7026 F   0  0  0  0  0  0  0  0  0  0  0  0
    1.5939    3.5310   -2.2795 N   0  0  0  0  0  0  0  0  0  0  0  0
    1.5467    2.7694   -1.1668 C   0  0  0  0  0  0  0  0  0  0  0  0
    1.1930    0.7344    1.0613 C   0  0  0  0  0  0  0  0  0  0  0  0
    0.1842    1.4397    1.0785 O   0  0  0  0  0  0  0  0  0  0  0  0
   -0.9950   -0.2413    0.6417 H   0  0  0  0  0  0  0  0  0  0  0  0
   -0.9540   -2.9593   -0.6541 H   0  0  0  0  0  0  0  0  0  0  0  0
   -2.2816   -1.8037   -0.7642 H   0  0  0  0  0  0  0  0  0  0  0  0
    1.1538   -2.5938   -1.8808 H   0  0  0  0  0  0  0  0  0  0  0  0
    1.2712    0.5277   -4.8183 H   0  0  0  0  0  0  0  0  0  0  0  0
   -2.0028    0.3434   -2.0598 H   0  0  0  0  0  0  0  0  0  0  0  0
   -0.0777    0.0289    3.3385 H   0  0  0  0  0  0  0  0  0  0  0  0
    3.2631   -0.0961    2.6430 H   0  0  0  0  0  0  0  0  0  0  0  0
    3.0695   -1.7748    2.0934 H   0  0  0  0  0  0  0  0  0  0  0  0
    3.0706   -1.0719   -0.2352 H   0  0  0  0  0  0  0  0  0  0  0  0
    4.2536    0.0582    0.5008 H   0  0  0  0  0  0  0  0  0  0  0  0
    3.9962    0.4971   -1.8485 H   0  0  0  0  0  0  0  0  0  0  0  0
    4.0759    1.8896   -3.8637 H   0  0  0  0  0  0  0  0  0  0  0  0
    0.8265    3.0901   -0.4247 H   0  0  0  0  0  0  0  0  0  0  0  0
  1  2  2  0
  2  3  1  0
  2 13  1  0
  3  4  1  0
  3 30  1  0
  4  5  1  0
  4 31  1  0
  4 32  1  0
  5  6  2  0
  5 12  1  0
  6  7  1  0
  6 33  1  0
  7  8  1  0
  7  9  2  0
  9 10  1  0
  9 34  1  0
 10 11  1  0
 10 12  2  0
 12 35  1  0
 13 14  1  1
 13 15  1  0
 13 28  1  0
 14 36  1  0
 15 16  1  0
 15 37  1  0
 15 38  1  0
 16 17  1  0
 16 39  1  0
 16 40  1  0
 17 18  1  0
 17 28  1  0
 18 19  2  0
 18 27  1  0
 19 20  1  0
 19 41  1  0
 20 21  2  0
 20 42  1  0
 21 22  1  0
 21 26  1  0
 22 23  1  0
 22 24  1  0
 22 25  1  0
 26 27  2  0
 27 43  1  0
 28 29  2  0
M  END
>  <group_name>  (1) 
MRK

>  <molecule_index>  (1) 
00538

>  <conformer_index>  (1) 
05

>  <method>  (1) 
openff-1.3.0

>  <basis>  (1) 
smirnoff

>  <program>  (1) 
openmm

>  <initial_energy>  (1) 
129.65653742407983 kilocalorie / mole

>  <final_energy>  (1) 
114.15056343831476 kilocalorie / mole

$$$$
