MRK-00538-01
     RDKit          3D

 43 45  0  0  0  0  0  0  0  0999 V2000
   -0.4526    0.4828   -1.0110 O   0  0  0  0  0  0  0  0  0  0  0  0
    0.2129   -0.3624   -0.4187 C   0  0  0  0  0  0  0  0  0  0  0  0
   -0.4232   -1.3878    0.2417 N   0  0  0  0  0  0  0  0  0  0  0  0
   -1.8661   -1.5798    0.1999 C   0  0  0  0  0  0  0  0  0  0  0  0
   -2.1877   -2.5214   -0.9308 C   0  0  0  0  0  0  0  0  0  0  0  0
   -2.3912   -3.8887   -0.6912 C   0  0  0  0  0  0  0  0  0  0  0  0
   -2.7034   -4.7587   -1.7406 C   0  0  0  0  0  0  0  0  0  0  0  0
   -2.8920   -6.0799   -1.4990 F   0  0  0  0  0  0  0  0  0  0  0  0
   -2.8192   -4.2567   -3.0394 C   0  0  0  0  0  0  0  0  0  0  0  0
   -2.6296   -2.8954   -3.2968 C   0  0  0  0  0  0  0  0  0  0  0  0
   -2.7769   -2.2782   -4.9190 Cl  0  0  0  0  0  0  0  0  0  0  0  0
   -2.3197   -2.0336   -2.2396 C   0  0  0  0  0  0  0  0  0  0  0  0
    1.7425   -0.3468   -0.5124 C   0  0  1  0  0  0  0  0  0  0  0  0
    2.4026   -1.3423    0.3249 O   0  0  0  0  0  0  0  0  0  0  0  0
    2.2284   -0.4643   -1.9669 C   0  0  0  0  0  0  0  0  0  0  0  0
    3.4392    0.4701   -2.0473 C   0  0  0  0  0  0  0  0  0  0  0  0
    3.0900    1.5302   -1.1099 N   0  0  0  0  0  0  0  0  0  0  0  0
    3.6565    2.8266   -1.1322 C   0  0  0  0  0  0  0  0  0  0  0  0
    4.7966    3.0867   -1.9000 C   0  0  0  0  0  0  0  0  0  0  0  0
    5.3240    4.3765   -1.9050 C   0  0  0  0  0  0  0  0  0  0  0  0
    4.7256    5.4081   -1.1576 C   0  0  0  0  0  0  0  0  0  0  0  0
    5.3552    6.8052   -1.2055 C   0  0  0  0  0  0  0  0  0  0  0  0
    6.6457    6.7404   -0.7625 F   0  0  0  0  0  0  0  0  0  0  0  0
    5.3769    7.2523   -2.4960 F   0  0  0  0  0  0  0  0  0  0  0  0
    4.6875    7.7233   -0.4460 F   0  0  0  0  0  0  0  0  0  0  0  0
    3.6151    5.1634   -0.4161 N   0  0  0  0  0  0  0  0  0  0  0  0
    3.1056    3.9130   -0.4075 C   0  0  0  0  0  0  0  0  0  0  0  0
    2.1925    1.0627   -0.1731 C   0  0  0  0  0  0  0  0  0  0  0  0
    2.0782    1.4936    0.9727 O   0  0  0  0  0  0  0  0  0  0  0  0
    0.1705   -2.1551    0.5452 H   0  0  0  0  0  0  0  0  0  0  0  0
   -2.2192   -1.9908    1.1513 H   0  0  0  0  0  0  0  0  0  0  0  0
   -2.3871   -0.6262    0.0547 H   0  0  0  0  0  0  0  0  0  0  0  0
   -2.3077   -4.2931    0.3128 H   0  0  0  0  0  0  0  0  0  0  0  0
   -3.0614   -4.9328   -3.8528 H   0  0  0  0  0  0  0  0  0  0  0  0
   -2.1746   -0.9749   -2.4415 H   0  0  0  0  0  0  0  0  0  0  0  0
    2.4324   -1.0237    1.2506 H   0  0  0  0  0  0  0  0  0  0  0  0
    2.4651   -1.4942   -2.2524 H   0  0  0  0  0  0  0  0  0  0  0  0
    1.4609   -0.0841   -2.6510 H   0  0  0  0  0  0  0  0  0  0  0  0
    4.3490   -0.0446   -1.7195 H   0  0  0  0  0  0  0  0  0  0  0  0
    3.5670    0.8429   -3.0690 H   0  0  0  0  0  0  0  0  0  0  0  0
    5.2871    2.3115   -2.4800 H   0  0  0  0  0  0  0  0  0  0  0  0
    6.2123    4.5957   -2.4910 H   0  0  0  0  0  0  0  0  0  0  0  0
    2.2052    3.7717    0.1803 H   0  0  0  0  0  0  0  0  0  0  0  0
  1  2  2  0
  2  3  1  0
  2 13  1  0
  3  4  1  0
  3 30  1  0
  4  5  1  0
  4 31  1  0
  4 32  1  0
  5  6  2  0
  5 12  1  0
  6  7  1  0
  6 33  1  0
  7  8  1  0
  7  9  2  0
  9 10  1  0
  9 34  1  0
 10 11  1  0
 10 12  2  0
 12 35  1  0
 13 14  1  1
 13 15  1  0
 13 28  1  0
 14 36  1  0
 15 16  1  0
 15 37  1  0
 15 38  1  0
 16 17  1  0
 16 39  1  0
 16 40  1  0
 17 18  1  0
 17 28  1  0
 18 19  2  0
 18 27  1  0
 19 20  1  0
 19 41  1  0
 20 21  2  0
 20 42  1  0
 21 22  1  0
 21 26  1  0
 22 23  1  0
 22 24  1  0
 22 25  1  0
 26 27  2  0
 27 43  1  0
 28 29  2  0
M  END
>  <group_name>  (1) 
MRK

>  <molecule_index>  (1) 
00538

>  <conformer_index>  (1) 
01

>  <method>  (1) 
openff-1.3.0

>  <basis>  (1) 
smirnoff

>  <program>  (1) 
openmm

>  <initial_energy>  (1) 
128.69403328943102 kilocalorie / mole

>  <final_energy>  (1) 
117.51140715815598 kilocalorie / mole

$$$$
