MRK-01088-04
     RDKit          3D

 48 50  0  0  0  0  0  0  0  0999 V2000
    0.6962    1.3638   -0.9178 C   0  0  0  0  0  0  0  0  0  0  0  0
    0.6674    1.2560    0.6256 C   0  0  1  0  0  0  0  0  0  0  0  0
   -0.7590    1.1520    0.9135 O   0  0  0  0  0  0  0  0  0  0  0  0
    1.5248    0.0401    1.0880 C   0  0  0  0  0  0  0  0  0  0  0  0
    2.5318   -0.2285    0.4299 O   0  0  0  0  0  0  0  0  0  0  0  0
    1.1715   -0.8627    2.0978 N   0  0  0  0  0  0  0  0  0  0  0  0
    1.9151   -2.1143    2.2665 C   0  0  0  0  0  0  0  0  0  0  0  0
    2.9104   -1.9435    3.4143 C   0  0  0  0  0  0  0  0  0  0  0  0
    2.1887   -1.4911    4.6970 C   0  0  0  0  0  0  0  0  0  0  0  0
    3.1635   -1.2764    5.8450 C   0  0  0  0  0  0  0  0  0  0  0  0
    3.4356   -2.2626    6.7493 C   0  0  0  0  0  0  0  0  0  0  0  0
    4.2687   -1.6759    7.7648 C   0  0  0  0  0  0  0  0  0  0  0  0
    4.4855   -0.4167    7.4989 N   0  0  0  0  0  0  0  0  0  0  0  0
    3.8649   -0.1526    6.3178 N   0  0  0  0  0  0  0  0  0  0  0  0
    3.9375    1.1212    5.7418 C   0  0  0  0  0  0  0  0  0  0  0  0
    4.3300    1.3238    4.4188 C   0  0  0  0  0  0  0  0  0  0  0  0
    4.3486    2.6252    3.9247 C   0  0  0  0  0  0  0  0  0  0  0  0
    3.9973    3.7144    4.7456 C   0  0  0  0  0  0  0  0  0  0  0  0
    4.0215    5.1243    4.1421 C   0  0  0  0  0  0  0  0  0  0  0  0
    3.7456    6.1016    5.0560 F   0  0  0  0  0  0  0  0  0  0  0  0
    5.2538    5.3780    3.6099 F   0  0  0  0  0  0  0  0  0  0  0  0
    3.1013    5.2088    3.1369 F   0  0  0  0  0  0  0  0  0  0  0  0
    3.6592    3.5134    6.0476 N   0  0  0  0  0  0  0  0  0  0  0  0
    3.6483    2.2494    6.5228 C   0  0  0  0  0  0  0  0  0  0  0  0
    1.2583   -0.2839    4.4550 C   0  0  0  0  0  0  0  0  0  0  0  0
    0.3396   -0.5003    3.2470 C   0  0  0  0  0  0  0  0  0  0  0  0
    1.3112    2.5117    1.2767 C   0  0  0  0  0  0  0  0  0  0  0  0
    1.2421    2.4574    2.6351 F   0  0  0  0  0  0  0  0  0  0  0  0
    0.6218    3.6227    0.8838 F   0  0  0  0  0  0  0  0  0  0  0  0
    2.6184    2.6744    0.9241 F   0  0  0  0  0  0  0  0  0  0  0  0
    0.3141    0.4410   -1.3663 H   0  0  0  0  0  0  0  0  0  0  0  0
    1.7176    1.5172   -1.2823 H   0  0  0  0  0  0  0  0  0  0  0  0
    0.0855    2.2013   -1.2689 H   0  0  0  0  0  0  0  0  0  0  0  0
   -1.2271    1.9596    0.6313 H   0  0  0  0  0  0  0  0  0  0  0  0
    2.4445   -2.4055    1.3528 H   0  0  0  0  0  0  0  0  0  0  0  0
    1.2185   -2.9280    2.4937 H   0  0  0  0  0  0  0  0  0  0  0  0
    3.4278   -2.8907    3.5953 H   0  0  0  0  0  0  0  0  0  0  0  0
    3.6615   -1.2148    3.1126 H   0  0  0  0  0  0  0  0  0  0  0  0
    1.5336   -2.3182    4.9920 H   0  0  0  0  0  0  0  0  0  0  0  0
    3.0623   -3.2809    6.7415 H   0  0  0  0  0  0  0  0  0  0  0  0
    4.6434   -2.1978    8.6405 H   0  0  0  0  0  0  0  0  0  0  0  0
    4.6382    0.4985    3.7888 H   0  0  0  0  0  0  0  0  0  0  0  0
    4.6384    2.8065    2.8930 H   0  0  0  0  0  0  0  0  0  0  0  0
    3.3716    2.1055    7.5634 H   0  0  0  0  0  0  0  0  0  0  0  0
    1.8455    0.6129    4.2682 H   0  0  0  0  0  0  0  0  0  0  0  0
    0.6541   -0.0984    5.3485 H   0  0  0  0  0  0  0  0  0  0  0  0
   -0.3741   -1.3046    3.4536 H   0  0  0  0  0  0  0  0  0  0  0  0
   -0.2450    0.4065    3.0871 H   0  0  0  0  0  0  0  0  0  0  0  0
  1  2  1  0
  1 31  1  0
  1 32  1  0
  1 33  1  0
  2  3  1  1
  2  4  1  0
  2 27  1  0
  3 34  1  0
  4  5  2  0
  4  6  1  0
  6  7  1  0
  6 26  1  0
  7  8  1  0
  7 35  1  0
  7 36  1  0
  8  9  1  0
  8 37  1  0
  8 38  1  0
  9 10  1  0
  9 25  1  0
  9 39  1  0
 10 11  2  0
 10 14  1  0
 11 12  1  0
 11 40  1  0
 12 13  2  0
 12 41  1  0
 13 14  1  0
 14 15  1  0
 15 16  2  0
 15 24  1  0
 16 17  1  0
 16 42  1  0
 17 18  2  0
 17 43  1  0
 18 19  1  0
 18 23  1  0
 19 20  1  0
 19 21  1  0
 19 22  1  0
 23 24  2  0
 24 44  1  0
 25 26  1  0
 25 45  1  0
 25 46  1  0
 26 47  1  0
 26 48  1  0
 27 28  1  0
 27 29  1  0
 27 30  1  0
M  END
>  <group_name>  (1) 
MRK

>  <molecule_index>  (1) 
01088

>  <conformer_index>  (1) 
04

>  <method>  (1) 
openff-1.3.0

>  <basis>  (1) 
smirnoff

>  <program>  (1) 
openmm

>  <initial_energy>  (1) 
169.86356736727384 kilocalorie / mole

>  <final_energy>  (1) 
152.21555207233925 kilocalorie / mole

$$$$
