MRK-01088-03
     RDKit          3D

 48 50  0  0  0  0  0  0  0  0999 V2000
    0.1920   -0.2412   -1.5493 C   0  0  0  0  0  0  0  0  0  0  0  0
   -0.1044   -0.5906   -0.0776 C   0  0  1  0  0  0  0  0  0  0  0  0
    0.6471   -1.8127    0.1953 O   0  0  0  0  0  0  0  0  0  0  0  0
    0.2762    0.6373    0.8097 C   0  0  0  0  0  0  0  0  0  0  0  0
   -0.5764    1.4985    1.0193 O   0  0  0  0  0  0  0  0  0  0  0  0
    1.5330    0.8579    1.3880 N   0  0  0  0  0  0  0  0  0  0  0  0
    1.6981    1.8233    2.4791 C   0  0  0  0  0  0  0  0  0  0  0  0
    2.0550    1.0490    3.7536 C   0  0  0  0  0  0  0  0  0  0  0  0
    3.2993    0.1584    3.5453 C   0  0  0  0  0  0  0  0  0  0  0  0
    3.5989   -0.6206    4.8216 C   0  0  0  0  0  0  0  0  0  0  0  0
    3.5239   -1.9813    4.9547 C   0  0  0  0  0  0  0  0  0  0  0  0
    3.7630   -2.2779    6.3400 C   0  0  0  0  0  0  0  0  0  0  0  0
    3.9712   -1.1771    7.0075 N   0  0  0  0  0  0  0  0  0  0  0  0
    3.9189   -0.1538    6.1096 N   0  0  0  0  0  0  0  0  0  0  0  0
    4.1420    1.1735    6.5150 C   0  0  0  0  0  0  0  0  0  0  0  0
    3.7473    1.5887    7.7889 C   0  0  0  0  0  0  0  0  0  0  0  0
    3.9747    2.9108    8.1625 C   0  0  0  0  0  0  0  0  0  0  0  0
    4.6003    3.8119    7.2800 C   0  0  0  0  0  0  0  0  0  0  0  0
    4.8138    5.2596    7.7394 C   0  0  0  0  0  0  0  0  0  0  0  0
    5.4397    6.0300    6.8008 F   0  0  0  0  0  0  0  0  0  0  0  0
    5.5686    5.2746    8.8773 F   0  0  0  0  0  0  0  0  0  0  0  0
    3.6067    5.8310    8.0243 F   0  0  0  0  0  0  0  0  0  0  0  0
    5.0109    3.3966    6.0520 N   0  0  0  0  0  0  0  0  0  0  0  0
    4.7955    2.1123    5.7016 C   0  0  0  0  0  0  0  0  0  0  0  0
    3.0762   -0.7579    2.3218 C   0  0  0  0  0  0  0  0  0  0  0  0
    2.7331    0.0790    1.0872 C   0  0  0  0  0  0  0  0  0  0  0  0
   -1.6211   -0.9016    0.1278 C   0  0  0  0  0  0  0  0  0  0  0  0
   -1.8983   -1.1432    1.4420 F   0  0  0  0  0  0  0  0  0  0  0  0
   -2.4557    0.0630   -0.3576 F   0  0  0  0  0  0  0  0  0  0  0  0
   -1.9220   -2.0463   -0.5583 F   0  0  0  0  0  0  0  0  0  0  0  0
   -0.0970   -1.0606   -2.2147 H   0  0  0  0  0  0  0  0  0  0  0  0
   -0.3615    0.6555   -1.8481 H   0  0  0  0  0  0  0  0  0  0  0  0
    1.2586   -0.0403   -1.6880 H   0  0  0  0  0  0  0  0  0  0  0  0
    0.2525   -2.5673   -0.2819 H   0  0  0  0  0  0  0  0  0  0  0  0
    0.7942    2.4142    2.6606 H   0  0  0  0  0  0  0  0  0  0  0  0
    2.4945    2.5326    2.2309 H   0  0  0  0  0  0  0  0  0  0  0  0
    2.2231    1.7620    4.5649 H   0  0  0  0  0  0  0  0  0  0  0  0
    1.2045    0.4212    4.0409 H   0  0  0  0  0  0  0  0  0  0  0  0
    4.1546    0.7911    3.3023 H   0  0  0  0  0  0  0  0  0  0  0  0
    3.2862   -2.7132    4.1912 H   0  0  0  0  0  0  0  0  0  0  0  0
    3.7511   -3.2733    6.7742 H   0  0  0  0  0  0  0  0  0  0  0  0
    3.2623    0.8927    8.4706 H   0  0  0  0  0  0  0  0  0  0  0  0
    3.6642    3.2537    9.1456 H   0  0  0  0  0  0  0  0  0  0  0  0
    5.1934    1.8078    4.7426 H   0  0  0  0  0  0  0  0  0  0  0  0
    2.2533   -1.4535    2.5166 H   0  0  0  0  0  0  0  0  0  0  0  0
    3.9800   -1.3429    2.1255 H   0  0  0  0  0  0  0  0  0  0  0  0
    2.6271   -0.5524    0.2037 H   0  0  0  0  0  0  0  0  0  0  0  0
    3.5607    0.7607    0.8642 H   0  0  0  0  0  0  0  0  0  0  0  0
  1  2  1  0
  1 31  1  0
  1 32  1  0
  1 33  1  0
  2  3  1  1
  2  4  1  0
  2 27  1  0
  3 34  1  0
  4  5  2  0
  4  6  1  0
  6  7  1  0
  6 26  1  0
  7  8  1  0
  7 35  1  0
  7 36  1  0
  8  9  1  0
  8 37  1  0
  8 38  1  0
  9 10  1  0
  9 25  1  0
  9 39  1  0
 10 11  2  0
 10 14  1  0
 11 12  1  0
 11 40  1  0
 12 13  2  0
 12 41  1  0
 13 14  1  0
 14 15  1  0
 15 16  2  0
 15 24  1  0
 16 17  1  0
 16 42  1  0
 17 18  2  0
 17 43  1  0
 18 19  1  0
 18 23  1  0
 19 20  1  0
 19 21  1  0
 19 22  1  0
 23 24  2  0
 24 44  1  0
 25 26  1  0
 25 45  1  0
 25 46  1  0
 26 47  1  0
 26 48  1  0
 27 28  1  0
 27 29  1  0
 27 30  1  0
M  END
>  <group_name>  (1) 
MRK

>  <molecule_index>  (1) 
01088

>  <conformer_index>  (1) 
03

>  <method>  (1) 
openff-1.3.0

>  <basis>  (1) 
smirnoff

>  <program>  (1) 
openmm

>  <initial_energy>  (1) 
169.22865547336562 kilocalorie / mole

>  <final_energy>  (1) 
154.34645395280748 kilocalorie / mole

$$$$
