MRK-01088-05
     RDKit          3D

 48 50  0  0  0  0  0  0  0  0999 V2000
   -1.3150   -1.1136    0.4801 C   0  0  0  0  0  0  0  0  0  0  0  0
   -0.4021   -0.1064   -0.2471 C   0  0  1  0  0  0  0  0  0  0  0  0
   -0.9012    1.2170    0.1163 O   0  0  0  0  0  0  0  0  0  0  0  0
    1.0779   -0.3821    0.1636 C   0  0  0  0  0  0  0  0  0  0  0  0
    1.7135   -1.2339   -0.4563 O   0  0  0  0  0  0  0  0  0  0  0  0
    1.7617    0.2860    1.1864 N   0  0  0  0  0  0  0  0  0  0  0  0
    1.0885    0.9373    2.3158 C   0  0  0  0  0  0  0  0  0  0  0  0
    1.4852    0.2433    3.6240 C   0  0  0  0  0  0  0  0  0  0  0  0
    3.0125    0.1788    3.7843 C   0  0  0  0  0  0  0  0  0  0  0  0
    3.3776   -0.5382    5.0720 C   0  0  0  0  0  0  0  0  0  0  0  0
    3.2646   -1.8873    5.2590 C   0  0  0  0  0  0  0  0  0  0  0  0
    3.8541   -2.1759    6.5375 C   0  0  0  0  0  0  0  0  0  0  0  0
    4.2954   -1.0781    7.0887 N   0  0  0  0  0  0  0  0  0  0  0  0
    3.9862   -0.0559    6.2417 N   0  0  0  0  0  0  0  0  0  0  0  0
    4.2314    1.2829    6.5970 C   0  0  0  0  0  0  0  0  0  0  0  0
    5.2889    1.5970    7.4535 C   0  0  0  0  0  0  0  0  0  0  0  0
    5.5043    2.9301    7.7953 C   0  0  0  0  0  0  0  0  0  0  0  0
    4.6643    3.9487    7.2961 C   0  0  0  0  0  0  0  0  0  0  0  0
    4.9174    5.4180    7.6704 C   0  0  0  0  0  0  0  0  0  0  0  0
    6.0064    5.5659    8.4832 F   0  0  0  0  0  0  0  0  0  0  0  0
    5.1440    6.1611    6.5478 F   0  0  0  0  0  0  0  0  0  0  0  0
    3.8405    5.9322    8.3333 F   0  0  0  0  0  0  0  0  0  0  0  0
    3.6198    3.6334    6.4842 N   0  0  0  0  0  0  0  0  0  0  0  0
    3.4157    2.3397    6.1647 C   0  0  0  0  0  0  0  0  0  0  0  0
    3.6237   -0.5267    2.5620 C   0  0  0  0  0  0  0  0  0  0  0  0
    3.2256    0.2053    1.2802 C   0  0  0  0  0  0  0  0  0  0  0  0
   -0.5192   -0.2638   -1.7962 C   0  0  0  0  0  0  0  0  0  0  0  0
   -1.7834    0.1002   -2.1713 F   0  0  0  0  0  0  0  0  0  0  0  0
    0.3444    0.5732   -2.4406 F   0  0  0  0  0  0  0  0  0  0  0  0
   -0.3443   -1.5433   -2.2376 F   0  0  0  0  0  0  0  0  0  0  0  0
   -1.0206   -2.1404    0.2378 H   0  0  0  0  0  0  0  0  0  0  0  0
   -2.3609   -0.9782    0.1878 H   0  0  0  0  0  0  0  0  0  0  0  0
   -1.2382   -0.9883    1.5641 H   0  0  0  0  0  0  0  0  0  0  0  0
   -1.7627    1.3867   -0.3099 H   0  0  0  0  0  0  0  0  0  0  0  0
    1.3662    1.9963    2.3467 H   0  0  0  0  0  0  0  0  0  0  0  0
    0.0016    0.8882    2.2452 H   0  0  0  0  0  0  0  0  0  0  0  0
    1.0384    0.7762    4.4685 H   0  0  0  0  0  0  0  0  0  0  0  0
    1.0767   -0.7726    3.6253 H   0  0  0  0  0  0  0  0  0  0  0  0
    3.4193    1.1933    3.8003 H   0  0  0  0  0  0  0  0  0  0  0  0
    2.8571   -2.6170    4.5677 H   0  0  0  0  0  0  0  0  0  0  0  0
    3.9406   -3.1670    6.9733 H   0  0  0  0  0  0  0  0  0  0  0  0
    5.9370    0.8132    7.8406 H   0  0  0  0  0  0  0  0  0  0  0  0
    6.3333    3.1707    8.4543 H   0  0  0  0  0  0  0  0  0  0  0  0
    2.5430    2.1299    5.5584 H   0  0  0  0  0  0  0  0  0  0  0  0
    4.7144   -0.5463    2.6507 H   0  0  0  0  0  0  0  0  0  0  0  0
    3.2732   -1.5616    2.4993 H   0  0  0  0  0  0  0  0  0  0  0  0
    3.6436    1.2173    1.2854 H   0  0  0  0  0  0  0  0  0  0  0  0
    3.6697   -0.3059    0.4195 H   0  0  0  0  0  0  0  0  0  0  0  0
  1  2  1  0
  1 31  1  0
  1 32  1  0
  1 33  1  0
  2  3  1  6
  2  4  1  0
  2 27  1  0
  3 34  1  0
  4  5  2  0
  4  6  1  0
  6  7  1  0
  6 26  1  0
  7  8  1  0
  7 35  1  0
  7 36  1  0
  8  9  1  0
  8 37  1  0
  8 38  1  0
  9 10  1  0
  9 25  1  0
  9 39  1  0
 10 11  2  0
 10 14  1  0
 11 12  1  0
 11 40  1  0
 12 13  2  0
 12 41  1  0
 13 14  1  0
 14 15  1  0
 15 16  2  0
 15 24  1  0
 16 17  1  0
 16 42  1  0
 17 18  2  0
 17 43  1  0
 18 19  1  0
 18 23  1  0
 19 20  1  0
 19 21  1  0
 19 22  1  0
 23 24  2  0
 24 44  1  0
 25 26  1  0
 25 45  1  0
 25 46  1  0
 26 47  1  0
 26 48  1  0
 27 28  1  0
 27 29  1  0
 27 30  1  0
M  END
>  <group_name>  (1) 
MRK

>  <molecule_index>  (1) 
01088

>  <conformer_index>  (1) 
05

>  <method>  (1) 
openff-1.3.0

>  <basis>  (1) 
smirnoff

>  <program>  (1) 
openmm

>  <initial_energy>  (1) 
167.8010503358792 kilocalorie / mole

>  <final_energy>  (1) 
152.74875662034208 kilocalorie / mole

$$$$
