MRK-00792-03
     RDKit          3D

 54 56  0  0  0  0  0  0  0  0999 V2000
    0.5696   -0.4820   -0.6248 O   0  0  0  0  0  0  0  0  0  0  0  0
    0.0638   -1.5362   -0.9964 C   0  0  0  0  0  0  0  0  0  0  0  0
    0.0607   -1.8640   -2.3290 N   0  0  0  0  0  0  0  0  0  0  0  0
    0.0799   -0.8199   -3.3595 C   0  0  0  0  0  0  0  0  0  0  0  0
   -1.3080   -0.6048   -3.9351 C   0  0  0  0  0  0  0  0  0  0  0  0
   -1.4474    0.0567   -5.1606 C   0  0  0  0  0  0  0  0  0  0  0  0
   -2.7072    0.2318   -5.7217 C   0  0  0  0  0  0  0  0  0  0  0  0
   -3.8005   -0.2739   -5.0265 C   0  0  0  0  0  0  0  0  0  0  0  0
   -3.6248   -0.9400   -3.7995 C   0  0  0  0  0  0  0  0  0  0  0  0
   -4.8611   -1.4663   -3.0590 C   0  0  0  0  0  0  0  0  0  0  0  0
   -4.5404   -2.0241   -1.8494 F   0  0  0  0  0  0  0  0  0  0  0  0
   -5.7228   -0.4359   -2.8194 F   0  0  0  0  0  0  0  0  0  0  0  0
   -5.4950   -2.4071   -3.8147 F   0  0  0  0  0  0  0  0  0  0  0  0
   -2.3800   -1.0980   -3.2686 N   0  0  0  0  0  0  0  0  0  0  0  0
   -0.6670   -2.4477   -0.0073 C   0  0  1  0  0  0  0  0  0  0  0  0
   -0.1099   -2.3853    1.4169 C   0  0  0  0  0  0  0  0  0  0  0  0
   -0.7967   -1.1587    1.9843 C   0  0  0  0  0  0  0  0  0  0  0  0
   -2.1721   -1.2813    1.4610 N   0  0  1  0  0  0  0  0  0  0  0  0
   -2.9268    0.0008    1.4614 C   0  0  0  0  0  0  0  0  0  0  0  0
   -2.3566    1.0012    0.4847 C   0  0  0  0  0  0  0  0  0  0  0  0
   -2.9282    1.1655   -0.7859 C   0  0  0  0  0  0  0  0  0  0  0  0
   -2.3810    2.0746   -1.6982 C   0  0  0  0  0  0  0  0  0  0  0  0
   -1.2545    2.8255   -1.3451 C   0  0  0  0  0  0  0  0  0  0  0  0
   -0.6905    2.6907   -0.0738 C   0  0  0  0  0  0  0  0  0  0  0  0
    0.4289    3.4054    0.2706 O   0  0  0  0  0  0  0  0  0  0  0  0
    1.6596    2.7032   -0.0248 C   0  0  0  0  0  0  0  0  0  0  0  0
    2.3738    2.1426    1.2096 C   0  0  0  0  0  0  0  0  0  0  0  0
    3.5294    1.5424    0.8120 F   0  0  0  0  0  0  0  0  0  0  0  0
    1.6082    1.2186    1.8591 F   0  0  0  0  0  0  0  0  0  0  0  0
    2.6723    3.1505    2.0749 F   0  0  0  0  0  0  0  0  0  0  0  0
   -1.2717    1.8146    0.8449 C   0  0  0  0  0  0  0  0  0  0  0  0
   -2.0996   -1.9274    0.1284 C   0  0  0  0  0  0  0  0  0  0  0  0
   -0.5182   -2.6692   -2.5550 H   0  0  0  0  0  0  0  0  0  0  0  0
    0.4369    0.1317   -2.9520 H   0  0  0  0  0  0  0  0  0  0  0  0
    0.7696   -1.1083   -4.1588 H   0  0  0  0  0  0  0  0  0  0  0  0
   -0.5686    0.4298   -5.6784 H   0  0  0  0  0  0  0  0  0  0  0  0
   -2.8346    0.7416   -6.6755 H   0  0  0  0  0  0  0  0  0  0  0  0
   -4.8017   -0.1591   -5.4348 H   0  0  0  0  0  0  0  0  0  0  0  0
   -0.6468   -3.4713   -0.3914 H   0  0  0  0  0  0  0  0  0  0  0  0
    0.9825   -2.2939    1.4425 H   0  0  0  0  0  0  0  0  0  0  0  0
   -0.4041   -3.2763    1.9820 H   0  0  0  0  0  0  0  0  0  0  0  0
   -0.7465   -1.1357    3.0801 H   0  0  0  0  0  0  0  0  0  0  0  0
   -0.2979   -0.2652    1.5903 H   0  0  0  0  0  0  0  0  0  0  0  0
   -3.9782   -0.1746    1.2007 H   0  0  0  0  0  0  0  0  0  0  0  0
   -2.9230    0.4498    2.4626 H   0  0  0  0  0  0  0  0  0  0  0  0
   -3.7989    0.5858   -1.0774 H   0  0  0  0  0  0  0  0  0  0  0  0
   -2.8290    2.1933   -2.6815 H   0  0  0  0  0  0  0  0  0  0  0  0
   -0.8170    3.5277   -2.0482 H   0  0  0  0  0  0  0  0  0  0  0  0
    1.4805    1.8745   -0.7160 H   0  0  0  0  0  0  0  0  0  0  0  0
    2.3441    3.3952   -0.5218 H   0  0  0  0  0  0  0  0  0  0  0  0
   -0.8414    1.7648    1.8392 H   0  0  0  0  0  0  0  0  0  0  0  0
   -2.3190   -1.2264   -0.6888 H   0  0  0  0  0  0  0  0  0  0  0  0
   -2.8174   -2.7540    0.0479 H   0  0  0  0  0  0  0  0  0  0  0  0
   -2.6714   -1.9243    2.0816 H   0  0  0  0  0  0  0  0  0  0  0  0
  1  2  2  0
  2  3  1  0
  2 15  1  0
  3  4  1  0
  3 33  1  0
  4  5  1  0
  4 34  1  0
  4 35  1  0
  5  6  2  0
  5 14  1  0
  6  7  1  0
  6 36  1  0
  7  8  2  0
  7 37  1  0
  8  9  1  0
  8 38  1  0
  9 10  1  0
  9 14  2  0
 10 11  1  0
 10 12  1  0
 10 13  1  0
 15 16  1  0
 15 32  1  0
 15 39  1  6
 16 17  1  0
 16 40  1  0
 16 41  1  0
 17 18  1  0
 17 42  1  0
 17 43  1  0
 18 19  1  0
 18 32  1  0
 18 54  1  1
 19 20  1  0
 19 44  1  0
 19 45  1  0
 20 21  2  0
 20 31  1  0
 21 22  1  0
 21 46  1  0
 22 23  2  0
 22 47  1  0
 23 24  1  0
 23 48  1  0
 24 25  1  0
 24 31  2  0
 25 26  1  0
 26 27  1  0
 26 49  1  0
 26 50  1  0
 27 28  1  0
 27 29  1  0
 27 30  1  0
 31 51  1  0
 32 52  1  0
 32 53  1  0
M  CHG  1  18   1
M  END
>  <group_name>  (1) 
MRK

>  <molecule_index>  (1) 
00792

>  <conformer_index>  (1) 
03

>  <method>  (1) 
openff-1.3.0

>  <basis>  (1) 
smirnoff

>  <program>  (1) 
openmm

>  <initial_energy>  (1) 
163.51114771608863 kilocalorie / mole

>  <final_energy>  (1) 
144.9049899810158 kilocalorie / mole

$$$$
