MRK-00538-03
     RDKit          3D

 43 45  0  0  0  0  0  0  0  0999 V2000
    1.7988   -1.2042   -2.3012 O   0  0  0  0  0  0  0  0  0  0  0  0
    1.6640   -1.6624   -1.1698 C   0  0  0  0  0  0  0  0  0  0  0  0
    0.7872   -2.7015   -0.9657 N   0  0  0  0  0  0  0  0  0  0  0  0
   -0.1231   -3.1918   -1.9911 C   0  0  0  0  0  0  0  0  0  0  0  0
   -1.4324   -2.4597   -1.8526 C   0  0  0  0  0  0  0  0  0  0  0  0
   -2.5258   -3.0587   -1.2091 C   0  0  0  0  0  0  0  0  0  0  0  0
   -3.7437   -2.3817   -1.0911 C   0  0  0  0  0  0  0  0  0  0  0  0
   -4.7924   -2.9681   -0.4619 F   0  0  0  0  0  0  0  0  0  0  0  0
   -3.8717   -1.0971   -1.6257 C   0  0  0  0  0  0  0  0  0  0  0  0
   -2.7964   -0.4868   -2.2787 C   0  0  0  0  0  0  0  0  0  0  0  0
   -2.9647    1.1148   -2.9428 Cl  0  0  0  0  0  0  0  0  0  0  0  0
   -1.5835   -1.1736   -2.3931 C   0  0  0  0  0  0  0  0  0  0  0  0
    2.4759   -1.1095    0.0095 C   0  0  1  0  0  0  0  0  0  0  0  0
    2.1260   -1.6914    1.2994 O   0  0  0  0  0  0  0  0  0  0  0  0
    3.9924   -1.1787   -0.2119 C   0  0  0  0  0  0  0  0  0  0  0  0
    4.3346    0.0593   -1.0523 C   0  0  0  0  0  0  0  0  0  0  0  0
    3.3295    1.0381   -0.6469 N   0  0  0  0  0  0  0  0  0  0  0  0
    3.3866    2.4031   -1.0350 C   0  0  0  0  0  0  0  0  0  0  0  0
    2.3203    3.2910   -0.8346 C   0  0  0  0  0  0  0  0  0  0  0  0
    2.4560    4.6149   -1.2482 C   0  0  0  0  0  0  0  0  0  0  0  0
    3.6378    5.0680   -1.8613 C   0  0  0  0  0  0  0  0  0  0  0  0
    3.7240    6.5372   -2.2910 C   0  0  0  0  0  0  0  0  0  0  0  0
    3.5561    7.3439   -1.2018 F   0  0  0  0  0  0  0  0  0  0  0  0
    4.9170    6.8540   -2.8765 F   0  0  0  0  0  0  0  0  0  0  0  0
    2.7253    6.8152   -3.1801 F   0  0  0  0  0  0  0  0  0  0  0  0
    4.6739    4.2145   -2.0654 N   0  0  0  0  0  0  0  0  0  0  0  0
    4.5383    2.9342   -1.6655 C   0  0  0  0  0  0  0  0  0  0  0  0
    2.2685    0.3939   -0.0403 C   0  0  0  0  0  0  0  0  0  0  0  0
    1.3620    0.8924    0.6273 O   0  0  0  0  0  0  0  0  0  0  0  0
    0.7022   -3.0391   -0.0103 H   0  0  0  0  0  0  0  0  0  0  0  0
   -0.2747   -4.2699   -1.8756 H   0  0  0  0  0  0  0  0  0  0  0  0
    0.2899   -3.0352   -2.9943 H   0  0  0  0  0  0  0  0  0  0  0  0
   -2.4430   -4.0566   -0.7899 H   0  0  0  0  0  0  0  0  0  0  0  0
   -4.8166   -0.5720   -1.5325 H   0  0  0  0  0  0  0  0  0  0  0  0
   -0.7499   -0.6952   -2.9019 H   0  0  0  0  0  0  0  0  0  0  0  0
    1.4480   -1.1277    1.7294 H   0  0  0  0  0  0  0  0  0  0  0  0
    4.5010   -1.0919    0.7546 H   0  0  0  0  0  0  0  0  0  0  0  0
    4.3080   -2.1107   -0.6914 H   0  0  0  0  0  0  0  0  0  0  0  0
    4.2424   -0.1590   -2.1224 H   0  0  0  0  0  0  0  0  0  0  0  0
    5.3540    0.3905   -0.8293 H   0  0  0  0  0  0  0  0  0  0  0  0
    1.3831    2.9950   -0.3751 H   0  0  0  0  0  0  0  0  0  0  0  0
    1.6355    5.3109   -1.0969 H   0  0  0  0  0  0  0  0  0  0  0  0
    5.3924    2.2930   -1.8538 H   0  0  0  0  0  0  0  0  0  0  0  0
  1  2  2  0
  2  3  1  0
  2 13  1  0
  3  4  1  0
  3 30  1  0
  4  5  1  0
  4 31  1  0
  4 32  1  0
  5  6  2  0
  5 12  1  0
  6  7  1  0
  6 33  1  0
  7  8  1  0
  7  9  2  0
  9 10  1  0
  9 34  1  0
 10 11  1  0
 10 12  2  0
 12 35  1  0
 13 14  1  1
 13 15  1  0
 13 28  1  0
 14 36  1  0
 15 16  1  0
 15 37  1  0
 15 38  1  0
 16 17  1  0
 16 39  1  0
 16 40  1  0
 17 18  1  0
 17 28  1  0
 18 19  2  0
 18 27  1  0
 19 20  1  0
 19 41  1  0
 20 21  2  0
 20 42  1  0
 21 22  1  0
 21 26  1  0
 22 23  1  0
 22 24  1  0
 22 25  1  0
 26 27  2  0
 27 43  1  0
 28 29  2  0
M  END
>  <group_name>  (1) 
MRK

>  <molecule_index>  (1) 
00538

>  <conformer_index>  (1) 
03

>  <method>  (1) 
openff-1.3.0

>  <basis>  (1) 
smirnoff

>  <program>  (1) 
openmm

>  <initial_energy>  (1) 
127.7922138657885 kilocalorie / mole

>  <final_energy>  (1) 
115.17440586519804 kilocalorie / mole

$$$$
