MRK-00538-00
     RDKit          3D

 43 45  0  0  0  0  0  0  0  0999 V2000
    1.5429   -3.2835   -1.1745 O   0  0  0  0  0  0  0  0  0  0  0  0
    1.6529   -2.1453   -0.7227 C   0  0  0  0  0  0  0  0  0  0  0  0
    0.7212   -1.6859    0.1786 N   0  0  0  0  0  0  0  0  0  0  0  0
   -0.4207   -2.4717    0.6226 C   0  0  0  0  0  0  0  0  0  0  0  0
   -1.5914   -2.1584   -0.2722 C   0  0  0  0  0  0  0  0  0  0  0  0
   -2.5445   -1.1997    0.1032 C   0  0  0  0  0  0  0  0  0  0  0  0
   -3.6393   -0.9203   -0.7206 C   0  0  0  0  0  0  0  0  0  0  0  0
   -4.5516    0.0126   -0.3509 F   0  0  0  0  0  0  0  0  0  0  0  0
   -3.7859   -1.6092   -1.9274 C   0  0  0  0  0  0  0  0  0  0  0  0
   -2.8512   -2.5744   -2.3149 C   0  0  0  0  0  0  0  0  0  0  0  0
   -3.0420   -3.4285   -3.8211 Cl  0  0  0  0  0  0  0  0  0  0  0  0
   -1.7608   -2.8472   -1.4825 C   0  0  0  0  0  0  0  0  0  0  0  0
    2.8433   -1.3038   -1.2075 C   0  0  1  0  0  0  0  0  0  0  0  0
    4.0930   -2.0138   -0.9861 O   0  0  0  0  0  0  0  0  0  0  0  0
    2.7187   -1.0057   -2.7075 C   0  0  0  0  0  0  0  0  0  0  0  0
    3.4990    0.2955   -2.8939 C   0  0  0  0  0  0  0  0  0  0  0  0
    3.2019    1.0211   -1.6638 N   0  0  0  0  0  0  0  0  0  0  0  0
    3.3828    2.4254   -1.5450 C   0  0  0  0  0  0  0  0  0  0  0  0
    2.9078    3.1659   -0.4535 C   0  0  0  0  0  0  0  0  0  0  0  0
    3.1268    4.5421   -0.4233 C   0  0  0  0  0  0  0  0  0  0  0  0
    3.8088    5.1936   -1.4666 C   0  0  0  0  0  0  0  0  0  0  0  0
    4.0137    6.7102   -1.3739 C   0  0  0  0  0  0  0  0  0  0  0  0
    4.6835    7.2257   -2.4471 F   0  0  0  0  0  0  0  0  0  0  0  0
    2.8005    7.3316   -1.2898 F   0  0  0  0  0  0  0  0  0  0  0  0
    4.7207    7.0096   -0.2445 F   0  0  0  0  0  0  0  0  0  0  0  0
    4.2691    4.4859   -2.5298 N   0  0  0  0  0  0  0  0  0  0  0  0
    4.0591    3.1547   -2.5535 C   0  0  0  0  0  0  0  0  0  0  0  0
    2.8387    0.1284   -0.6695 C   0  0  0  0  0  0  0  0  0  0  0  0
    2.5143    0.4118    0.4844 O   0  0  0  0  0  0  0  0  0  0  0  0
    0.9385   -0.8030    0.6452 H   0  0  0  0  0  0  0  0  0  0  0  0
   -0.6629   -2.2273    1.6620 H   0  0  0  0  0  0  0  0  0  0  0  0
   -0.1971   -3.5442    0.5921 H   0  0  0  0  0  0  0  0  0  0  0  0
   -2.4435   -0.6571    1.0381 H   0  0  0  0  0  0  0  0  0  0  0  0
   -4.6358   -1.3910   -2.5657 H   0  0  0  0  0  0  0  0  0  0  0  0
   -1.0350   -3.5978   -1.7861 H   0  0  0  0  0  0  0  0  0  0  0  0
    3.9725   -2.9622   -1.1921 H   0  0  0  0  0  0  0  0  0  0  0  0
    3.0898   -1.8194   -3.3390 H   0  0  0  0  0  0  0  0  0  0  0  0
    1.6679   -0.8233   -2.9621 H   0  0  0  0  0  0  0  0  0  0  0  0
    4.5739    0.0974   -2.9726 H   0  0  0  0  0  0  0  0  0  0  0  0
    3.1495    0.8243   -3.7871 H   0  0  0  0  0  0  0  0  0  0  0  0
    2.3648    2.7200    0.3727 H   0  0  0  0  0  0  0  0  0  0  0  0
    2.7638    5.1252    0.4187 H   0  0  0  0  0  0  0  0  0  0  0  0
    4.4553    2.6325   -3.4181 H   0  0  0  0  0  0  0  0  0  0  0  0
  1  2  2  0
  2  3  1  0
  2 13  1  0
  3  4  1  0
  3 30  1  0
  4  5  1  0
  4 31  1  0
  4 32  1  0
  5  6  2  0
  5 12  1  0
  6  7  1  0
  6 33  1  0
  7  8  1  0
  7  9  2  0
  9 10  1  0
  9 34  1  0
 10 11  1  0
 10 12  2  0
 12 35  1  0
 13 14  1  6
 13 15  1  0
 13 28  1  0
 14 36  1  0
 15 16  1  0
 15 37  1  0
 15 38  1  0
 16 17  1  0
 16 39  1  0
 16 40  1  0
 17 18  1  0
 17 28  1  0
 18 19  2  0
 18 27  1  0
 19 20  1  0
 19 41  1  0
 20 21  2  0
 20 42  1  0
 21 22  1  0
 21 26  1  0
 22 23  1  0
 22 24  1  0
 22 25  1  0
 26 27  2  0
 27 43  1  0
 28 29  2  0
M  END
>  <group_name>  (1) 
MRK

>  <molecule_index>  (1) 
00538

>  <conformer_index>  (1) 
00

>  <method>  (1) 
openff-1.3.0

>  <basis>  (1) 
smirnoff

>  <program>  (1) 
openmm

>  <initial_energy>  (1) 
130.5125695953719 kilocalorie / mole

>  <final_energy>  (1) 
117.5132522512211 kilocalorie / mole

$$$$
