MRK-00792-00
     RDKit          3D

 54 56  0  0  0  0  0  0  0  0999 V2000
   -0.8848   -3.6769   -1.3992 O   0  0  0  0  0  0  0  0  0  0  0  0
   -2.1029   -3.5611   -1.3023 C   0  0  0  0  0  0  0  0  0  0  0  0
   -2.8810   -3.5641   -2.4340 N   0  0  0  0  0  0  0  0  0  0  0  0
   -2.2994   -3.3170   -3.7591 C   0  0  0  0  0  0  0  0  0  0  0  0
   -2.3429   -1.8512   -4.1560 C   0  0  0  0  0  0  0  0  0  0  0  0
   -2.1440   -1.5198   -5.5015 C   0  0  0  0  0  0  0  0  0  0  0  0
   -2.2168   -0.1972   -5.9182 C   0  0  0  0  0  0  0  0  0  0  0  0
   -2.4986    0.7659   -4.9577 C   0  0  0  0  0  0  0  0  0  0  0  0
   -2.6963    0.4026   -3.6127 C   0  0  0  0  0  0  0  0  0  0  0  0
   -3.0108    1.5080   -2.5958 C   0  0  0  0  0  0  0  0  0  0  0  0
   -4.0364    2.2910   -3.0343 F   0  0  0  0  0  0  0  0  0  0  0  0
   -1.9092    2.2933   -2.4125 F   0  0  0  0  0  0  0  0  0  0  0  0
   -3.3547    1.0039   -1.3706 F   0  0  0  0  0  0  0  0  0  0  0  0
   -2.6154   -0.9036   -3.2218 N   0  0  0  0  0  0  0  0  0  0  0  0
   -2.7496   -3.2625    0.0532 C   0  0  1  0  0  0  0  0  0  0  0  0
   -1.8915   -3.6466    1.2605 C   0  0  0  0  0  0  0  0  0  0  0  0
   -0.8474   -2.5383    1.3250 C   0  0  0  0  0  0  0  0  0  0  0  0
   -1.5079   -1.3553    0.7286 N   0  0  1  0  0  0  0  0  0  0  0  0
   -0.6766   -0.7621   -0.3356 C   0  0  0  0  0  0  0  0  0  0  0  0
    0.1647    0.3051    0.3028 C   0  0  0  0  0  0  0  0  0  0  0  0
    1.4747    0.0241    0.7157 C   0  0  0  0  0  0  0  0  0  0  0  0
    2.2602    1.0245    1.2981 C   0  0  0  0  0  0  0  0  0  0  0  0
    1.7449    2.3157    1.4527 C   0  0  0  0  0  0  0  0  0  0  0  0
    0.4547    2.6235    1.0168 C   0  0  0  0  0  0  0  0  0  0  0  0
   -0.0092    3.9080    1.1754 O   0  0  0  0  0  0  0  0  0  0  0  0
   -0.5869    4.4970   -0.0110 C   0  0  0  0  0  0  0  0  0  0  0  0
   -0.5320    6.0238    0.0055 C   0  0  0  0  0  0  0  0  0  0  0  0
   -1.0928    6.4852   -1.1466 F   0  0  0  0  0  0  0  0  0  0  0  0
    0.7617    6.4451    0.0729 F   0  0  0  0  0  0  0  0  0  0  0  0
   -1.2345    6.5065    1.0679 F   0  0  0  0  0  0  0  0  0  0  0  0
   -0.3343    1.6093    0.4520 C   0  0  0  0  0  0  0  0  0  0  0  0
   -2.8410   -1.7522    0.2279 C   0  0  0  0  0  0  0  0  0  0  0  0
   -3.8579   -3.3143   -2.3078 H   0  0  0  0  0  0  0  0  0  0  0  0
   -2.8424   -3.9066   -4.5043 H   0  0  0  0  0  0  0  0  0  0  0  0
   -1.2583   -3.6560   -3.7935 H   0  0  0  0  0  0  0  0  0  0  0  0
   -1.9334   -2.3007   -6.2264 H   0  0  0  0  0  0  0  0  0  0  0  0
   -2.0638    0.0751   -6.9615 H   0  0  0  0  0  0  0  0  0  0  0  0
   -2.5687    1.8108   -5.2497 H   0  0  0  0  0  0  0  0  0  0  0  0
   -3.7328   -3.7400    0.0900 H   0  0  0  0  0  0  0  0  0  0  0  0
   -1.4325   -4.6369    1.1587 H   0  0  0  0  0  0  0  0  0  0  0  0
   -2.5002   -3.6338    2.1714 H   0  0  0  0  0  0  0  0  0  0  0  0
    0.0264   -2.8354    0.7296 H   0  0  0  0  0  0  0  0  0  0  0  0
   -0.5152   -2.3658    2.3566 H   0  0  0  0  0  0  0  0  0  0  0  0
   -0.0394   -1.5171   -0.8159 H   0  0  0  0  0  0  0  0  0  0  0  0
   -1.2908   -0.3210   -1.1297 H   0  0  0  0  0  0  0  0  0  0  0  0
    1.8956   -0.9704    0.5888 H   0  0  0  0  0  0  0  0  0  0  0  0
    3.2738    0.8037    1.6258 H   0  0  0  0  0  0  0  0  0  0  0  0
    2.3502    3.0983    1.9029 H   0  0  0  0  0  0  0  0  0  0  0  0
   -0.0583    4.1507   -0.9040 H   0  0  0  0  0  0  0  0  0  0  0  0
   -1.6356    4.2025   -0.0961 H   0  0  0  0  0  0  0  0  0  0  0  0
   -1.3448    1.8468    0.1384 H   0  0  0  0  0  0  0  0  0  0  0  0
   -3.6175   -1.5102    0.9652 H   0  0  0  0  0  0  0  0  0  0  0  0
   -3.1057   -1.2617   -0.7193 H   0  0  0  0  0  0  0  0  0  0  0  0
   -1.6088   -0.6347    1.4506 H   0  0  0  0  0  0  0  0  0  0  0  0
  1  2  2  0
  2  3  1  0
  2 15  1  0
  3  4  1  0
  3 33  1  0
  4  5  1  0
  4 34  1  0
  4 35  1  0
  5  6  2  0
  5 14  1  0
  6  7  1  0
  6 36  1  0
  7  8  2  0
  7 37  1  0
  8  9  1  0
  8 38  1  0
  9 10  1  0
  9 14  2  0
 10 11  1  0
 10 12  1  0
 10 13  1  0
 15 16  1  0
 15 32  1  0
 15 39  1  1
 16 17  1  0
 16 40  1  0
 16 41  1  0
 17 18  1  0
 17 42  1  0
 17 43  1  0
 18 19  1  0
 18 32  1  0
 18 54  1  1
 19 20  1  0
 19 44  1  0
 19 45  1  0
 20 21  2  0
 20 31  1  0
 21 22  1  0
 21 46  1  0
 22 23  2  0
 22 47  1  0
 23 24  1  0
 23 48  1  0
 24 25  1  0
 24 31  2  0
 25 26  1  0
 26 27  1  0
 26 49  1  0
 26 50  1  0
 27 28  1  0
 27 29  1  0
 27 30  1  0
 31 51  1  0
 32 52  1  0
 32 53  1  0
M  CHG  1  18   1
M  END
>  <group_name>  (1) 
MRK

>  <molecule_index>  (1) 
00792

>  <conformer_index>  (1) 
00

>  <method>  (1) 
openff-1.3.0

>  <basis>  (1) 
smirnoff

>  <program>  (1) 
openmm

>  <initial_energy>  (1) 
161.78718551315353 kilocalorie / mole

>  <final_energy>  (1) 
144.40183048356394 kilocalorie / mole

$$$$
