MRK-00792-06
     RDKit          3D

 54 56  0  0  0  0  0  0  0  0999 V2000
   -3.5375    1.7257   -2.9646 O   0  0  0  0  0  0  0  0  0  0  0  0
   -4.1847    0.8520   -2.3952 C   0  0  0  0  0  0  0  0  0  0  0  0
   -4.6321   -0.2361   -3.1042 N   0  0  0  0  0  0  0  0  0  0  0  0
   -4.0886   -0.5764   -4.4251 C   0  0  0  0  0  0  0  0  0  0  0  0
   -3.0480   -1.6796   -4.3609 C   0  0  0  0  0  0  0  0  0  0  0  0
   -2.6361   -2.2808   -5.5559 C   0  0  0  0  0  0  0  0  0  0  0  0
   -1.7146   -3.3195   -5.5377 C   0  0  0  0  0  0  0  0  0  0  0  0
   -1.2343   -3.7325   -4.3012 C   0  0  0  0  0  0  0  0  0  0  0  0
   -1.6684   -3.1093   -3.1160 C   0  0  0  0  0  0  0  0  0  0  0  0
   -1.1147   -3.6172   -1.7774 C   0  0  0  0  0  0  0  0  0  0  0  0
   -1.8098   -3.1238   -0.7082 F   0  0  0  0  0  0  0  0  0  0  0  0
   -1.1677   -4.9791   -1.7225 F   0  0  0  0  0  0  0  0  0  0  0  0
    0.1861   -3.2250   -1.6498 F   0  0  0  0  0  0  0  0  0  0  0  0
   -2.5701   -2.0846   -3.1578 N   0  0  0  0  0  0  0  0  0  0  0  0
   -4.3831    0.9237   -0.8760 C   0  0  1  0  0  0  0  0  0  0  0  0
   -3.9119   -0.3399   -0.1511 C   0  0  0  0  0  0  0  0  0  0  0  0
   -2.3997   -0.2081   -0.2143 C   0  0  0  0  0  0  0  0  0  0  0  0
   -2.1524    1.2448   -0.1005 N   0  0  1  0  0  0  0  0  0  0  0  0
   -1.1396    1.7016   -1.0752 C   0  0  0  0  0  0  0  0  0  0  0  0
    0.1974    1.2279   -0.5808 C   0  0  0  0  0  0  0  0  0  0  0  0
    0.7677    0.0597   -1.1030 C   0  0  0  0  0  0  0  0  0  0  0  0
    1.9922   -0.4036   -0.6163 C   0  0  0  0  0  0  0  0  0  0  0  0
    2.6491    0.2989    0.3986 C   0  0  0  0  0  0  0  0  0  0  0  0
    2.1057    1.4723    0.9280 C   0  0  0  0  0  0  0  0  0  0  0  0
    2.8099    2.1041    1.9325 O   0  0  0  0  0  0  0  0  0  0  0  0
    2.0886    2.8148    2.9693 C   0  0  0  0  0  0  0  0  0  0  0  0
    1.0997    1.9889    3.8107 C   0  0  0  0  0  0  0  0  0  0  0  0
    0.6992    2.7499    4.8651 F   0  0  0  0  0  0  0  0  0  0  0  0
    1.6917    0.8545    4.2739 F   0  0  0  0  0  0  0  0  0  0  0  0
   -0.0206    1.6589    3.1013 F   0  0  0  0  0  0  0  0  0  0  0  0
    0.8927    1.9521    0.4009 C   0  0  0  0  0  0  0  0  0  0  0  0
   -3.4399    1.9578   -0.2613 C   0  0  0  0  0  0  0  0  0  0  0  0
   -4.9829   -1.0101   -2.5468 H   0  0  0  0  0  0  0  0  0  0  0  0
   -3.6336    0.3003   -4.8982 H   0  0  0  0  0  0  0  0  0  0  0  0
   -4.9071   -0.8941   -5.0784 H   0  0  0  0  0  0  0  0  0  0  0  0
   -3.0409   -1.9366   -6.5031 H   0  0  0  0  0  0  0  0  0  0  0  0
   -1.3847   -3.7982   -6.4585 H   0  0  0  0  0  0  0  0  0  0  0  0
   -0.5171   -4.5478   -4.2484 H   0  0  0  0  0  0  0  0  0  0  0  0
   -5.4312    1.1602   -0.6713 H   0  0  0  0  0  0  0  0  0  0  0  0
   -4.2440   -0.3232    0.8933 H   0  0  0  0  0  0  0  0  0  0  0  0
   -4.2589   -1.2733   -0.6073 H   0  0  0  0  0  0  0  0  0  0  0  0
   -2.0395   -0.5930   -1.1776 H   0  0  0  0  0  0  0  0  0  0  0  0
   -1.9133   -0.7878    0.5812 H   0  0  0  0  0  0  0  0  0  0  0  0
   -1.3409    1.2975   -2.0765 H   0  0  0  0  0  0  0  0  0  0  0  0
   -1.1336    2.7943   -1.1704 H   0  0  0  0  0  0  0  0  0  0  0  0
    0.2640   -0.5006   -1.8867 H   0  0  0  0  0  0  0  0  0  0  0  0
    2.4312   -1.3138   -1.0191 H   0  0  0  0  0  0  0  0  0  0  0  0
    3.5955   -0.0658    0.7886 H   0  0  0  0  0  0  0  0  0  0  0  0
    2.8324    3.2196    3.6615 H   0  0  0  0  0  0  0  0  0  0  0  0
    1.5645    3.6744    2.5467 H   0  0  0  0  0  0  0  0  0  0  0  0
    0.4795    2.8857    0.7651 H   0  0  0  0  0  0  0  0  0  0  0  0
   -3.3618    2.8421   -0.9095 H   0  0  0  0  0  0  0  0  0  0  0  0
   -3.8292    2.2814    0.7126 H   0  0  0  0  0  0  0  0  0  0  0  0
   -1.7704    1.4249    0.8335 H   0  0  0  0  0  0  0  0  0  0  0  0
  1  2  2  0
  2  3  1  0
  2 15  1  0
  3  4  1  0
  3 33  1  0
  4  5  1  0
  4 34  1  0
  4 35  1  0
  5  6  2  0
  5 14  1  0
  6  7  1  0
  6 36  1  0
  7  8  2  0
  7 37  1  0
  8  9  1  0
  8 38  1  0
  9 10  1  0
  9 14  2  0
 10 11  1  0
 10 12  1  0
 10 13  1  0
 15 16  1  0
 15 32  1  0
 15 39  1  6
 16 17  1  0
 16 40  1  0
 16 41  1  0
 17 18  1  0
 17 42  1  0
 17 43  1  0
 18 19  1  0
 18 32  1  0
 18 54  1  1
 19 20  1  0
 19 44  1  0
 19 45  1  0
 20 21  2  0
 20 31  1  0
 21 22  1  0
 21 46  1  0
 22 23  2  0
 22 47  1  0
 23 24  1  0
 23 48  1  0
 24 25  1  0
 24 31  2  0
 25 26  1  0
 26 27  1  0
 26 49  1  0
 26 50  1  0
 27 28  1  0
 27 29  1  0
 27 30  1  0
 31 51  1  0
 32 52  1  0
 32 53  1  0
M  CHG  1  18   1
M  END
>  <group_name>  (1) 
MRK

>  <molecule_index>  (1) 
00792

>  <conformer_index>  (1) 
06

>  <method>  (1) 
openff-1.3.0

>  <basis>  (1) 
smirnoff

>  <program>  (1) 
openmm

>  <initial_energy>  (1) 
158.55237288591894 kilocalorie / mole

>  <final_energy>  (1) 
143.71917176110688 kilocalorie / mole

$$$$
