MRK-00538-04
     RDKit          3D

 43 45  0  0  0  0  0  0  0  0999 V2000
    1.6555   -3.2813    0.4090 O   0  0  0  0  0  0  0  0  0  0  0  0
    1.4667   -2.1314    0.0189 C   0  0  0  0  0  0  0  0  0  0  0  0
    0.4492   -1.8888   -0.8724 N   0  0  0  0  0  0  0  0  0  0  0  0
   -0.4931   -2.9170   -1.2787 C   0  0  0  0  0  0  0  0  0  0  0  0
   -1.6327   -2.2400   -1.9922 C   0  0  0  0  0  0  0  0  0  0  0  0
   -1.7284   -2.2856   -3.3911 C   0  0  0  0  0  0  0  0  0  0  0  0
   -2.7928   -1.6686   -4.0556 C   0  0  0  0  0  0  0  0  0  0  0  0
   -2.8730   -1.7163   -5.4087 F   0  0  0  0  0  0  0  0  0  0  0  0
   -3.7733   -1.0039   -3.3148 C   0  0  0  0  0  0  0  0  0  0  0  0
   -3.6996   -0.9529   -1.9194 C   0  0  0  0  0  0  0  0  0  0  0  0
   -4.9284   -0.1243   -1.0041 Cl  0  0  0  0  0  0  0  0  0  0  0  0
   -2.6304   -1.5735   -1.2646 C   0  0  0  0  0  0  0  0  0  0  0  0
    2.3762   -1.0308    0.5846 C   0  0  1  0  0  0  0  0  0  0  0  0
    2.4113   -1.0967    2.0368 O   0  0  0  0  0  0  0  0  0  0  0  0
    3.8128   -1.1771    0.0632 C   0  0  0  0  0  0  0  0  0  0  0  0
    4.3720    0.2469    0.1094 C   0  0  0  0  0  0  0  0  0  0  0  0
    3.2106    1.0438   -0.2646 N   0  0  0  0  0  0  0  0  0  0  0  0
    3.3067    2.3356   -0.8397 C   0  0  0  0  0  0  0  0  0  0  0  0
    4.4934    3.0666   -0.7108 C   0  0  0  0  0  0  0  0  0  0  0  0
    4.5747    4.3311   -1.2900 C   0  0  0  0  0  0  0  0  0  0  0  0
    3.4890    4.8741   -2.0010 C   0  0  0  0  0  0  0  0  0  0  0  0
    3.6427    6.2694   -2.6175 C   0  0  0  0  0  0  0  0  0  0  0  0
    4.6917    6.2678   -3.4924 F   0  0  0  0  0  0  0  0  0  0  0  0
    2.5283    6.6870   -3.2878 F   0  0  0  0  0  0  0  0  0  0  0  0
    3.9174    7.1767   -1.6344 F   0  0  0  0  0  0  0  0  0  0  0  0
    2.3370    4.1692   -2.1361 N   0  0  0  0  0  0  0  0  0  0  0  0
    2.2545    2.9470   -1.5688 C   0  0  0  0  0  0  0  0  0  0  0  0
    2.0492    0.3548    0.0301 C   0  0  0  0  0  0  0  0  0  0  0  0
    0.9029    0.7708   -0.1300 O   0  0  0  0  0  0  0  0  0  0  0  0
    0.1882   -0.9095   -1.0104 H   0  0  0  0  0  0  0  0  0  0  0  0
   -0.0043   -3.6399   -1.9407 H   0  0  0  0  0  0  0  0  0  0  0  0
   -0.8720   -3.4598   -0.4053 H   0  0  0  0  0  0  0  0  0  0  0  0
   -0.9740   -2.7982   -3.9802 H   0  0  0  0  0  0  0  0  0  0  0  0
   -4.5981   -0.5241   -3.8315 H   0  0  0  0  0  0  0  0  0  0  0  0
   -2.5786   -1.5271   -0.1803 H   0  0  0  0  0  0  0  0  0  0  0  0
    2.3998   -2.0330    2.3207 H   0  0  0  0  0  0  0  0  0  0  0  0
    3.7950   -1.5128   -0.9802 H   0  0  0  0  0  0  0  0  0  0  0  0
    4.4088   -1.8883    0.6443 H   0  0  0  0  0  0  0  0  0  0  0  0
    4.7041    0.5035    1.1216 H   0  0  0  0  0  0  0  0  0  0  0  0
    5.2008    0.3579   -0.5977 H   0  0  0  0  0  0  0  0  0  0  0  0
    5.3453    2.6832   -0.1580 H   0  0  0  0  0  0  0  0  0  0  0  0
    5.4866    4.9138   -1.1922 H   0  0  0  0  0  0  0  0  0  0  0  0
    1.3207    2.4233   -1.7341 H   0  0  0  0  0  0  0  0  0  0  0  0
  1  2  2  0
  2  3  1  0
  2 13  1  0
  3  4  1  0
  3 30  1  0
  4  5  1  0
  4 31  1  0
  4 32  1  0
  5  6  2  0
  5 12  1  0
  6  7  1  0
  6 33  1  0
  7  8  1  0
  7  9  2  0
  9 10  1  0
  9 34  1  0
 10 11  1  0
 10 12  2  0
 12 35  1  0
 13 14  1  1
 13 15  1  0
 13 28  1  0
 14 36  1  0
 15 16  1  0
 15 37  1  0
 15 38  1  0
 16 17  1  0
 16 39  1  0
 16 40  1  0
 17 18  1  0
 17 28  1  0
 18 19  2  0
 18 27  1  0
 19 20  1  0
 19 41  1  0
 20 21  2  0
 20 42  1  0
 21 22  1  0
 21 26  1  0
 22 23  1  0
 22 24  1  0
 22 25  1  0
 26 27  2  0
 27 43  1  0
 28 29  2  0
M  END
>  <group_name>  (1) 
MRK

>  <molecule_index>  (1) 
00538

>  <conformer_index>  (1) 
04

>  <method>  (1) 
openff-1.3.0

>  <basis>  (1) 
smirnoff

>  <program>  (1) 
openmm

>  <initial_energy>  (1) 
136.70293568094357 kilocalorie / mole

>  <final_energy>  (1) 
118.48303557456815 kilocalorie / mole

$$$$
