MRK-00792-09
     RDKit          3D

 54 56  0  0  0  0  0  0  0  0999 V2000
   -1.3991   -3.7172   -1.1052 O   0  0  0  0  0  0  0  0  0  0  0  0
   -2.5872   -3.4253   -1.0066 C   0  0  0  0  0  0  0  0  0  0  0  0
   -3.3815   -3.4098   -2.1268 N   0  0  0  0  0  0  0  0  0  0  0  0
   -2.7990   -3.3524   -3.4731 C   0  0  0  0  0  0  0  0  0  0  0  0
   -2.6475   -1.9312   -3.9879 C   0  0  0  0  0  0  0  0  0  0  0  0
   -2.4328   -1.7388   -5.3579 C   0  0  0  0  0  0  0  0  0  0  0  0
   -2.3306   -0.4564   -5.8805 C   0  0  0  0  0  0  0  0  0  0  0  0
   -2.4563    0.6098   -4.9993 C   0  0  0  0  0  0  0  0  0  0  0  0
   -2.6743    0.3859   -3.6273 C   0  0  0  0  0  0  0  0  0  0  0  0
   -2.8116    1.6018   -2.7011 C   0  0  0  0  0  0  0  0  0  0  0  0
   -3.7281    2.4827   -3.1923 F   0  0  0  0  0  0  0  0  0  0  0  0
   -3.1961    1.2497   -1.4356 F   0  0  0  0  0  0  0  0  0  0  0  0
   -1.6085    2.2379   -2.5933 F   0  0  0  0  0  0  0  0  0  0  0  0
   -2.7667   -0.8835   -3.1317 N   0  0  0  0  0  0  0  0  0  0  0  0
   -3.1581   -2.9324    0.3261 C   0  0  1  0  0  0  0  0  0  0  0  0
   -2.3365   -3.3352    1.5526 C   0  0  0  0  0  0  0  0  0  0  0  0
   -1.1480   -2.3819    1.5165 C   0  0  0  0  0  0  0  0  0  0  0  0
   -1.6507   -1.1695    0.8317 N   0  0  1  0  0  0  0  0  0  0  0  0
   -0.7675   -0.7849   -0.2853 C   0  0  0  0  0  0  0  0  0  0  0  0
    0.2265    0.2017    0.2558 C   0  0  0  0  0  0  0  0  0  0  0  0
    1.4932   -0.2258    0.6780 C   0  0  0  0  0  0  0  0  0  0  0  0
    2.4216    0.6980    1.1694 C   0  0  0  0  0  0  0  0  0  0  0  0
    2.0936    2.0568    1.2226 C   0  0  0  0  0  0  0  0  0  0  0  0
    0.8497    2.5062    0.7749 C   0  0  0  0  0  0  0  0  0  0  0  0
    0.5718    3.8515    0.8321 O   0  0  0  0  0  0  0  0  0  0  0  0
    0.0564    4.4190   -0.3928 C   0  0  0  0  0  0  0  0  0  0  0  0
    0.3226    5.9195   -0.5020 C   0  0  0  0  0  0  0  0  0  0  0  0
   -0.1931    6.3615   -1.6824 F   0  0  0  0  0  0  0  0  0  0  0  0
   -0.2837    6.5789    0.5242 F   0  0  0  0  0  0  0  0  0  0  0  0
    1.6633    6.1599   -0.4820 F   0  0  0  0  0  0  0  0  0  0  0  0
   -0.0836    1.5705    0.3024 C   0  0  0  0  0  0  0  0  0  0  0  0
   -3.0360   -1.4151    0.3777 C   0  0  0  0  0  0  0  0  0  0  0  0
   -4.3119   -3.0173   -2.0121 H   0  0  0  0  0  0  0  0  0  0  0  0
   -1.8157   -3.8350   -3.4896 H   0  0  0  0  0  0  0  0  0  0  0  0
   -3.4338   -3.9178   -4.1625 H   0  0  0  0  0  0  0  0  0  0  0  0
   -2.3474   -2.5967   -6.0186 H   0  0  0  0  0  0  0  0  0  0  0  0
   -2.1632   -0.2920   -6.9440 H   0  0  0  0  0  0  0  0  0  0  0  0
   -2.3873    1.6278   -5.3750 H   0  0  0  0  0  0  0  0  0  0  0  0
   -4.1969   -3.2636    0.4111 H   0  0  0  0  0  0  0  0  0  0  0  0
   -2.9185   -3.1651    2.4651 H   0  0  0  0  0  0  0  0  0  0  0  0
   -2.0211   -4.3848    1.5276 H   0  0  0  0  0  0  0  0  0  0  0  0
   -0.7739   -2.1758    2.5274 H   0  0  0  0  0  0  0  0  0  0  0  0
   -0.3361   -2.8444    0.9392 H   0  0  0  0  0  0  0  0  0  0  0  0
   -0.2512   -1.6573   -0.7083 H   0  0  0  0  0  0  0  0  0  0  0  0
   -1.3311   -0.3268   -1.1068 H   0  0  0  0  0  0  0  0  0  0  0  0
    1.7695   -1.2764    0.6290 H   0  0  0  0  0  0  0  0  0  0  0  0
    3.4014    0.3646    1.5045 H   0  0  0  0  0  0  0  0  0  0  0  0
    2.8106    2.7805    1.6015 H   0  0  0  0  0  0  0  0  0  0  0  0
    0.5130    3.9321   -1.2595 H   0  0  0  0  0  0  0  0  0  0  0  0
   -1.0246    4.2682   -0.4433 H   0  0  0  0  0  0  0  0  0  0  0  0
   -1.0578    1.9212   -0.0202 H   0  0  0  0  0  0  0  0  0  0  0  0
   -3.7560   -1.0092    1.1001 H   0  0  0  0  0  0  0  0  0  0  0  0
   -3.2499   -0.9694   -0.6039 H   0  0  0  0  0  0  0  0  0  0  0  0
   -1.6359   -0.3867    1.4932 H   0  0  0  0  0  0  0  0  0  0  0  0
  1  2  2  0
  2  3  1  0
  2 15  1  0
  3  4  1  0
  3 33  1  0
  4  5  1  0
  4 34  1  0
  4 35  1  0
  5  6  2  0
  5 14  1  0
  6  7  1  0
  6 36  1  0
  7  8  2  0
  7 37  1  0
  8  9  1  0
  8 38  1  0
  9 10  1  0
  9 14  2  0
 10 11  1  0
 10 12  1  0
 10 13  1  0
 15 16  1  0
 15 32  1  0
 15 39  1  1
 16 17  1  0
 16 40  1  0
 16 41  1  0
 17 18  1  0
 17 42  1  0
 17 43  1  0
 18 19  1  0
 18 32  1  0
 18 54  1  1
 19 20  1  0
 19 44  1  0
 19 45  1  0
 20 21  2  0
 20 31  1  0
 21 22  1  0
 21 46  1  0
 22 23  2  0
 22 47  1  0
 23 24  1  0
 23 48  1  0
 24 25  1  0
 24 31  2  0
 25 26  1  0
 26 27  1  0
 26 49  1  0
 26 50  1  0
 27 28  1  0
 27 29  1  0
 27 30  1  0
 31 51  1  0
 32 52  1  0
 32 53  1  0
M  CHG  1  18   1
M  END
>  <group_name>  (1) 
MRK

>  <molecule_index>  (1) 
00792

>  <conformer_index>  (1) 
09

>  <method>  (1) 
openff-1.3.0

>  <basis>  (1) 
smirnoff

>  <program>  (1) 
openmm

>  <initial_energy>  (1) 
161.80069090418857 kilocalorie / mole

>  <final_energy>  (1) 
144.40182219275127 kilocalorie / mole

$$$$
