MRK-00538-06
     RDKit          3D

 43 45  0  0  0  0  0  0  0  0999 V2000
   -0.2404    0.9403   -2.2824 O   0  0  0  0  0  0  0  0  0  0  0  0
    0.2554   -0.0534   -1.7601 C   0  0  0  0  0  0  0  0  0  0  0  0
   -0.5618   -1.1018   -1.4129 N   0  0  0  0  0  0  0  0  0  0  0  0
   -1.9997   -1.0775   -1.6180 C   0  0  0  0  0  0  0  0  0  0  0  0
   -2.5278   -2.4563   -1.3252 C   0  0  0  0  0  0  0  0  0  0  0  0
   -2.9476   -2.7977   -0.0309 C   0  0  0  0  0  0  0  0  0  0  0  0
   -3.4552   -4.0713    0.2435 C   0  0  0  0  0  0  0  0  0  0  0  0
   -3.8518   -4.3929    1.4999 F   0  0  0  0  0  0  0  0  0  0  0  0
   -3.5506   -5.0100   -0.7869 C   0  0  0  0  0  0  0  0  0  0  0  0
   -3.1469   -4.6856   -2.0859 C   0  0  0  0  0  0  0  0  0  0  0  0
   -3.2737   -5.8610   -3.3652 Cl  0  0  0  0  0  0  0  0  0  0  0  0
   -2.6407   -3.4082   -2.3495 C   0  0  0  0  0  0  0  0  0  0  0  0
    1.7732   -0.1599   -1.5727 C   0  0  1  0  0  0  0  0  0  0  0  0
    2.2074   -1.3631   -0.8716 O   0  0  0  0  0  0  0  0  0  0  0  0
    2.5328   -0.0134   -2.9021 C   0  0  0  0  0  0  0  0  0  0  0  0
    3.7805    0.8009   -2.5469 C   0  0  0  0  0  0  0  0  0  0  0  0
    3.3032    1.6696   -1.4784 N   0  0  0  0  0  0  0  0  0  0  0  0
    3.9263    2.8842   -1.1060 C   0  0  0  0  0  0  0  0  0  0  0  0
    5.2099    3.1912   -1.5698 C   0  0  0  0  0  0  0  0  0  0  0  0
    5.7911    4.3993   -1.1898 C   0  0  0  0  0  0  0  0  0  0  0  0
    5.1058    5.3043   -0.3578 C   0  0  0  0  0  0  0  0  0  0  0  0
    5.8008    6.6165    0.0237 C   0  0  0  0  0  0  0  0  0  0  0  0
    5.0389    7.4157    0.8277 F   0  0  0  0  0  0  0  0  0  0  0  0
    6.1072    7.3169   -1.1083 F   0  0  0  0  0  0  0  0  0  0  0  0
    6.9692    6.3422    0.6759 F   0  0  0  0  0  0  0  0  0  0  0  0
    3.8572    5.0150    0.0898 N   0  0  0  0  0  0  0  0  0  0  0  0
    3.2949    3.8428   -0.2745 C   0  0  0  0  0  0  0  0  0  0  0  0
    2.2139    1.1015   -0.8521 C   0  0  0  0  0  0  0  0  0  0  0  0
    1.8896    1.2958    0.3177 O   0  0  0  0  0  0  0  0  0  0  0  0
   -0.1169   -1.9561   -1.0872 H   0  0  0  0  0  0  0  0  0  0  0  0
   -2.4663   -0.3433   -0.9519 H   0  0  0  0  0  0  0  0  0  0  0  0
   -2.2365   -0.7945   -2.6498 H   0  0  0  0  0  0  0  0  0  0  0  0
   -2.8820   -2.0754    0.7778 H   0  0  0  0  0  0  0  0  0  0  0  0
   -3.9453   -5.9978   -0.5726 H   0  0  0  0  0  0  0  0  0  0  0  0
   -2.3325   -3.1621   -3.3617 H   0  0  0  0  0  0  0  0  0  0  0  0
    2.0685   -1.2509    0.0913 H   0  0  0  0  0  0  0  0  0  0  0  0
    1.9373    0.5718   -3.6122 H   0  0  0  0  0  0  0  0  0  0  0  0
    2.7706   -0.9776   -3.3622 H   0  0  0  0  0  0  0  0  0  0  0  0
    4.5789    0.1472   -2.1790 H   0  0  0  0  0  0  0  0  0  0  0  0
    4.1295    1.3653   -3.4179 H   0  0  0  0  0  0  0  0  0  0  0  0
    5.7686    2.5111   -2.2049 H   0  0  0  0  0  0  0  0  0  0  0  0
    6.7895    4.6521   -1.5358 H   0  0  0  0  0  0  0  0  0  0  0  0
    2.2881    3.6666    0.0883 H   0  0  0  0  0  0  0  0  0  0  0  0
  1  2  2  0
  2  3  1  0
  2 13  1  0
  3  4  1  0
  3 30  1  0
  4  5  1  0
  4 31  1  0
  4 32  1  0
  5  6  2  0
  5 12  1  0
  6  7  1  0
  6 33  1  0
  7  8  1  0
  7  9  2  0
  9 10  1  0
  9 34  1  0
 10 11  1  0
 10 12  2  0
 12 35  1  0
 13 14  1  1
 13 15  1  0
 13 28  1  0
 14 36  1  0
 15 16  1  0
 15 37  1  0
 15 38  1  0
 16 17  1  0
 16 39  1  0
 16 40  1  0
 17 18  1  0
 17 28  1  0
 18 19  2  0
 18 27  1  0
 19 20  1  0
 19 41  1  0
 20 21  2  0
 20 42  1  0
 21 22  1  0
 21 26  1  0
 22 23  1  0
 22 24  1  0
 22 25  1  0
 26 27  2  0
 27 43  1  0
 28 29  2  0
M  END
>  <group_name>  (1) 
MRK

>  <molecule_index>  (1) 
00538

>  <conformer_index>  (1) 
06

>  <method>  (1) 
openff-1.3.0

>  <basis>  (1) 
smirnoff

>  <program>  (1) 
openmm

>  <initial_energy>  (1) 
130.64470083891507 kilocalorie / mole

>  <final_energy>  (1) 
117.70469974601248 kilocalorie / mole

$$$$
