MRK-00792-07
     RDKit          3D

 54 56  0  0  0  0  0  0  0  0999 V2000
   -2.1343    2.0865   -1.2247 O   0  0  0  0  0  0  0  0  0  0  0  0
   -3.1173    1.5137   -1.6848 C   0  0  0  0  0  0  0  0  0  0  0  0
   -3.2165    1.3339   -3.0432 N   0  0  0  0  0  0  0  0  0  0  0  0
   -2.0392    1.4627   -3.9118 C   0  0  0  0  0  0  0  0  0  0  0  0
   -1.1588    0.2244   -3.9128 C   0  0  0  0  0  0  0  0  0  0  0  0
   -0.0009    0.2286   -4.6986 C   0  0  0  0  0  0  0  0  0  0  0  0
    0.8237   -0.8881   -4.7395 C   0  0  0  0  0  0  0  0  0  0  0  0
    0.4509   -1.9926   -3.9834 C   0  0  0  0  0  0  0  0  0  0  0  0
   -0.7197   -1.9661   -3.2023 C   0  0  0  0  0  0  0  0  0  0  0  0
   -1.1031   -3.2169   -2.3993 C   0  0  0  0  0  0  0  0  0  0  0  0
   -0.3475   -3.2784   -1.2653 F   0  0  0  0  0  0  0  0  0  0  0  0
   -0.8987   -4.3516   -3.1280 F   0  0  0  0  0  0  0  0  0  0  0  0
   -2.4158   -3.1968   -2.0101 F   0  0  0  0  0  0  0  0  0  0  0  0
   -1.5122   -0.8554   -3.1714 N   0  0  0  0  0  0  0  0  0  0  0  0
   -4.1562    0.9158   -0.7301 C   0  0  1  0  0  0  0  0  0  0  0  0
   -4.6424   -0.4921   -1.1371 C   0  0  0  0  0  0  0  0  0  0  0  0
   -4.6141   -1.3108    0.1470 C   0  0  0  0  0  0  0  0  0  0  0  0
   -3.4764   -0.7287    0.8741 N   0  0  1  0  0  0  0  0  0  0  0  0
   -2.1831   -1.2917    0.4225 C   0  0  0  0  0  0  0  0  0  0  0  0
   -1.0507   -0.6893    1.2060 C   0  0  0  0  0  0  0  0  0  0  0  0
   -0.7935   -1.0737    2.5288 C   0  0  0  0  0  0  0  0  0  0  0  0
    0.2833   -0.5119    3.2222 C   0  0  0  0  0  0  0  0  0  0  0  0
    1.1036    0.4337    2.5961 C   0  0  0  0  0  0  0  0  0  0  0  0
    0.8719    0.8288    1.2755 C   0  0  0  0  0  0  0  0  0  0  0  0
    1.7337    1.7636    0.7306 O   0  0  0  0  0  0  0  0  0  0  0  0
    1.3021    2.5220   -0.4247 C   0  0  0  0  0  0  0  0  0  0  0  0
    1.8523    1.9968   -1.7561 C   0  0  0  0  0  0  0  0  0  0  0  0
    1.5785    0.6734   -1.9277 F   0  0  0  0  0  0  0  0  0  0  0  0
    1.2710    2.6867   -2.7779 F   0  0  0  0  0  0  0  0  0  0  0  0
    3.2002    2.1767   -1.8108 F   0  0  0  0  0  0  0  0  0  0  0  0
   -0.2034    0.2388    0.5844 C   0  0  0  0  0  0  0  0  0  0  0  0
   -3.5713    0.7312    0.6764 C   0  0  0  0  0  0  0  0  0  0  0  0
   -3.9619    0.7216   -3.3615 H   0  0  0  0  0  0  0  0  0  0  0  0
   -2.3662    1.6608   -4.9372 H   0  0  0  0  0  0  0  0  0  0  0  0
   -1.4363    2.3238   -3.6033 H   0  0  0  0  0  0  0  0  0  0  0  0
    0.2596    1.1113   -5.2751 H   0  0  0  0  0  0  0  0  0  0  0  0
    1.7311   -0.8974   -5.3410 H   0  0  0  0  0  0  0  0  0  0  0  0
    1.0732   -2.8837   -3.9942 H   0  0  0  0  0  0  0  0  0  0  0  0
   -4.9970    1.6135   -0.6795 H   0  0  0  0  0  0  0  0  0  0  0  0
   -5.6406   -0.4784   -1.5884 H   0  0  0  0  0  0  0  0  0  0  0  0
   -3.9514   -0.9503   -1.8529 H   0  0  0  0  0  0  0  0  0  0  0  0
   -4.4856   -2.3804   -0.0667 H   0  0  0  0  0  0  0  0  0  0  0  0
   -5.5511   -1.1739    0.7021 H   0  0  0  0  0  0  0  0  0  0  0  0
   -2.0240   -1.0895   -0.6446 H   0  0  0  0  0  0  0  0  0  0  0  0
   -2.1604   -2.3824    0.5435 H   0  0  0  0  0  0  0  0  0  0  0  0
   -1.4099   -1.8175    3.0266 H   0  0  0  0  0  0  0  0  0  0  0  0
    0.4916   -0.8121    4.2467 H   0  0  0  0  0  0  0  0  0  0  0  0
    1.9415    0.8695    3.1334 H   0  0  0  0  0  0  0  0  0  0  0  0
    0.2133    2.5797   -0.4811 H   0  0  0  0  0  0  0  0  0  0  0  0
    1.6526    3.5507   -0.3078 H   0  0  0  0  0  0  0  0  0  0  0  0
   -0.3932    0.4829   -0.4542 H   0  0  0  0  0  0  0  0  0  0  0  0
   -4.2448    1.1835    1.4154 H   0  0  0  0  0  0  0  0  0  0  0  0
   -2.5990    1.2335    0.7766 H   0  0  0  0  0  0  0  0  0  0  0  0
   -3.5534   -0.9309    1.8755 H   0  0  0  0  0  0  0  0  0  0  0  0
  1  2  2  0
  2  3  1  0
  2 15  1  0
  3  4  1  0
  3 33  1  0
  4  5  1  0
  4 34  1  0
  4 35  1  0
  5  6  2  0
  5 14  1  0
  6  7  1  0
  6 36  1  0
  7  8  2  0
  7 37  1  0
  8  9  1  0
  8 38  1  0
  9 10  1  0
  9 14  2  0
 10 11  1  0
 10 12  1  0
 10 13  1  0
 15 16  1  0
 15 32  1  0
 15 39  1  1
 16 17  1  0
 16 40  1  0
 16 41  1  0
 17 18  1  0
 17 42  1  0
 17 43  1  0
 18 19  1  0
 18 32  1  0
 18 54  1  1
 19 20  1  0
 19 44  1  0
 19 45  1  0
 20 21  2  0
 20 31  1  0
 21 22  1  0
 21 46  1  0
 22 23  2  0
 22 47  1  0
 23 24  1  0
 23 48  1  0
 24 25  1  0
 24 31  2  0
 25 26  1  0
 26 27  1  0
 26 49  1  0
 26 50  1  0
 27 28  1  0
 27 29  1  0
 27 30  1  0
 31 51  1  0
 32 52  1  0
 32 53  1  0
M  CHG  1  18   1
M  END
>  <group_name>  (1) 
MRK

>  <molecule_index>  (1) 
00792

>  <conformer_index>  (1) 
07

>  <method>  (1) 
openff-1.3.0

>  <basis>  (1) 
smirnoff

>  <program>  (1) 
openmm

>  <initial_energy>  (1) 
164.42223477035375 kilocalorie / mole

>  <final_energy>  (1) 
141.57095518188427 kilocalorie / mole

$$$$
