MRK-00792-05
     RDKit          3D

 54 56  0  0  0  0  0  0  0  0999 V2000
    0.7579   -1.6132   -2.5204 O   0  0  0  0  0  0  0  0  0  0  0  0
   -0.1294   -2.4603   -2.5544 C   0  0  0  0  0  0  0  0  0  0  0  0
   -1.0443   -2.4587   -3.5778 N   0  0  0  0  0  0  0  0  0  0  0  0
   -1.2744   -1.2389   -4.3605 C   0  0  0  0  0  0  0  0  0  0  0  0
   -2.2520   -0.2892   -3.6872 C   0  0  0  0  0  0  0  0  0  0  0  0
   -2.6644    0.8495   -4.3876 C   0  0  0  0  0  0  0  0  0  0  0  0
   -3.5787    1.7272   -3.8218 C   0  0  0  0  0  0  0  0  0  0  0  0
   -4.0576    1.4306   -2.5523 C   0  0  0  0  0  0  0  0  0  0  0  0
   -3.6269    0.2764   -1.8720 C   0  0  0  0  0  0  0  0  0  0  0  0
   -4.1866    0.0001   -0.4681 C   0  0  0  0  0  0  0  0  0  0  0  0
   -3.4269   -0.8991    0.2292 F   0  0  0  0  0  0  0  0  0  0  0  0
   -5.4477   -0.5075   -0.5732 F   0  0  0  0  0  0  0  0  0  0  0  0
   -4.2448    1.1460    0.2711 F   0  0  0  0  0  0  0  0  0  0  0  0
   -2.7244   -0.5732   -2.4471 N   0  0  0  0  0  0  0  0  0  0  0  0
   -0.3476   -3.3646   -1.3449 C   0  0  1  0  0  0  0  0  0  0  0  0
    0.9470   -3.9476   -0.7473 C   0  0  0  0  0  0  0  0  0  0  0  0
    0.8416   -3.6634    0.7466 C   0  0  0  0  0  0  0  0  0  0  0  0
    0.0785   -2.4058    0.7974 N   0  0  1  0  0  0  0  0  0  0  0  0
    0.9354   -1.2122    0.6132 C   0  0  0  0  0  0  0  0  0  0  0  0
    0.1051    0.0300    0.7968 C   0  0  0  0  0  0  0  0  0  0  0  0
   -0.3493    0.4128    2.0667 C   0  0  0  0  0  0  0  0  0  0  0  0
   -1.1252    1.5664    2.2157 C   0  0  0  0  0  0  0  0  0  0  0  0
   -1.4326    2.3562    1.1025 C   0  0  0  0  0  0  0  0  0  0  0  0
   -0.9552    2.0082   -0.1734 C   0  0  0  0  0  0  0  0  0  0  0  0
   -1.2164    2.7429   -1.3117 O   0  0  0  0  0  0  0  0  0  0  0  0
   -1.1972    4.1845   -1.1834 C   0  0  0  0  0  0  0  0  0  0  0  0
   -2.5589    4.8311   -1.4445 C   0  0  0  0  0  0  0  0  0  0  0  0
   -2.9386    4.6189   -2.7355 F   0  0  0  0  0  0  0  0  0  0  0  0
   -2.4559    6.1701   -1.2266 F   0  0  0  0  0  0  0  0  0  0  0  0
   -3.5054    4.3161   -0.6108 F   0  0  0  0  0  0  0  0  0  0  0  0
   -0.2018    0.8385   -0.3100 C   0  0  0  0  0  0  0  0  0  0  0  0
   -0.9645   -2.5132   -0.2396 C   0  0  0  0  0  0  0  0  0  0  0  0
   -1.8588   -3.0483   -3.4284 H   0  0  0  0  0  0  0  0  0  0  0  0
   -1.6646   -1.5101   -5.3463 H   0  0  0  0  0  0  0  0  0  0  0  0
   -0.3301   -0.7101   -4.5300 H   0  0  0  0  0  0  0  0  0  0  0  0
   -2.2703    1.0489   -5.3794 H   0  0  0  0  0  0  0  0  0  0  0  0
   -3.9094    2.6189   -4.3518 H   0  0  0  0  0  0  0  0  0  0  0  0
   -4.7731    2.0995   -2.0810 H   0  0  0  0  0  0  0  0  0  0  0  0
   -1.0376   -4.1677   -1.6177 H   0  0  0  0  0  0  0  0  0  0  0  0
    1.0580   -5.0180   -0.9518 H   0  0  0  0  0  0  0  0  0  0  0  0
    1.8278   -3.4350   -1.1510 H   0  0  0  0  0  0  0  0  0  0  0  0
    1.8349   -3.5825    1.2067 H   0  0  0  0  0  0  0  0  0  0  0  0
    0.2934   -4.4749    1.2422 H   0  0  0  0  0  0  0  0  0  0  0  0
    1.3863   -1.2024   -0.3875 H   0  0  0  0  0  0  0  0  0  0  0  0
    1.7605   -1.2006    1.3357 H   0  0  0  0  0  0  0  0  0  0  0  0
   -0.1109   -0.1762    2.9482 H   0  0  0  0  0  0  0  0  0  0  0  0
   -1.4947    1.8515    3.1984 H   0  0  0  0  0  0  0  0  0  0  0  0
   -2.0596    3.2301    1.2476 H   0  0  0  0  0  0  0  0  0  0  0  0
   -0.8402    4.5004   -0.1999 H   0  0  0  0  0  0  0  0  0  0  0  0
   -0.4914    4.5886   -1.9137 H   0  0  0  0  0  0  0  0  0  0  0  0
    0.1446    0.5719   -1.3054 H   0  0  0  0  0  0  0  0  0  0  0  0
   -1.2714   -1.5311   -0.6279 H   0  0  0  0  0  0  0  0  0  0  0  0
   -1.8655   -3.0018    0.1534 H   0  0  0  0  0  0  0  0  0  0  0  0
   -0.3832   -2.3020    1.7059 H   0  0  0  0  0  0  0  0  0  0  0  0
  1  2  2  0
  2  3  1  0
  2 15  1  0
  3  4  1  0
  3 33  1  0
  4  5  1  0
  4 34  1  0
  4 35  1  0
  5  6  2  0
  5 14  1  0
  6  7  1  0
  6 36  1  0
  7  8  2  0
  7 37  1  0
  8  9  1  0
  8 38  1  0
  9 10  1  0
  9 14  2  0
 10 11  1  0
 10 12  1  0
 10 13  1  0
 15 16  1  0
 15 32  1  0
 15 39  1  6
 16 17  1  0
 16 40  1  0
 16 41  1  0
 17 18  1  0
 17 42  1  0
 17 43  1  0
 18 19  1  0
 18 32  1  0
 18 54  1  1
 19 20  1  0
 19 44  1  0
 19 45  1  0
 20 21  2  0
 20 31  1  0
 21 22  1  0
 21 46  1  0
 22 23  2  0
 22 47  1  0
 23 24  1  0
 23 48  1  0
 24 25  1  0
 24 31  2  0
 25 26  1  0
 26 27  1  0
 26 49  1  0
 26 50  1  0
 27 28  1  0
 27 29  1  0
 27 30  1  0
 31 51  1  0
 32 52  1  0
 32 53  1  0
M  CHG  1  18   1
M  END
>  <group_name>  (1) 
MRK

>  <molecule_index>  (1) 
00792

>  <conformer_index>  (1) 
05

>  <method>  (1) 
openff-1.3.0

>  <basis>  (1) 
smirnoff

>  <program>  (1) 
openmm

>  <initial_energy>  (1) 
154.1318030729059 kilocalorie / mole

>  <final_energy>  (1) 
141.3592550568459 kilocalorie / mole

$$$$
