RCH-00337-01
     RDKit          3D

 43 45  0  0  0  0  0  0  0  0999 V2000
    1.6963   -1.7142   -6.1068 C   0  0  0  0  0  0  0  0  0  0  0  0
    0.5526   -1.6254   -5.3155 C   0  0  0  0  0  0  0  0  0  0  0  0
    1.5885   -1.8025   -7.4912 C   0  0  0  0  0  0  0  0  0  0  0  0
   -3.1270   -1.6031   -5.8225 C   0  0  0  0  0  0  0  0  0  0  0  0
   -0.7323   -1.6289   -5.9012 C   0  0  0  0  0  0  0  0  0  0  0  0
    0.3257   -1.8112   -8.1156 C   0  0  0  0  0  0  0  0  0  0  0  0
   -1.9149   -1.5411   -5.1313 C   0  0  0  0  0  0  0  0  0  0  0  0
   -0.8404   -1.7349   -7.3209 C   0  0  0  0  0  0  0  0  0  0  0  0
   -3.1791   -1.7126   -7.2185 C   0  0  0  0  0  0  0  0  0  0  0  0
   -3.3114    1.5169   -1.3650 C   0  0  0  0  0  0  0  0  0  0  0  0
   -3.4091    2.5158   -2.5315 C   0  0  0  0  0  0  0  0  0  0  0  0
   -2.5274    0.2437   -1.7344 C   0  0  0  0  0  0  0  0  0  0  0  0
   -2.1488    2.4659   -3.3980 C   0  0  0  0  0  0  0  0  0  0  0  0
   -2.5802   -0.0142   -3.2490 C   0  0  2  0  0  0  0  0  0  0  0  0
   -1.9523   -1.3781   -3.6193 C   0  0  1  0  0  0  0  0  0  0  0  0
    0.2220   -1.9060   -9.6325 C   0  0  0  0  0  0  0  0  0  0  0  0
   -4.5486   -1.7497   -7.9056 C   0  0  0  0  0  0  0  0  0  0  0  0
   -2.0373   -1.7552   -7.9375 N   0  0  0  0  0  0  0  0  0  0  0  0
   -1.9401    1.1135   -3.9806 N   0  0  0  0  0  0  0  0  0  0  0  0
   -2.7660   -2.4218   -3.0806 O   0  0  0  0  0  0  0  0  0  0  0  0
   -0.4423   -3.0375   -9.9988 F   0  0  0  0  0  0  0  0  0  0  0  0
    1.4568   -1.9643  -10.2079 F   0  0  0  0  0  0  0  0  0  0  0  0
   -0.3920   -0.7958  -10.1307 F   0  0  0  0  0  0  0  0  0  0  0  0
   -5.2500   -2.8347   -7.4668 F   0  0  0  0  0  0  0  0  0  0  0  0
   -4.4598   -1.8019   -9.2662 F   0  0  0  0  0  0  0  0  0  0  0  0
   -5.2415   -0.6234   -7.5617 F   0  0  0  0  0  0  0  0  0  0  0  0
    2.6825   -1.7238   -5.6461 H   0  0  0  0  0  0  0  0  0  0  0  0
    0.7228   -1.5790   -4.2463 H   0  0  0  0  0  0  0  0  0  0  0  0
    2.5076   -1.8719   -8.0719 H   0  0  0  0  0  0  0  0  0  0  0  0
   -4.0679   -1.5767   -5.2770 H   0  0  0  0  0  0  0  0  0  0  0  0
   -2.8276    1.9936   -0.5048 H   0  0  0  0  0  0  0  0  0  0  0  0
   -4.3254    1.2470   -1.0476 H   0  0  0  0  0  0  0  0  0  0  0  0
   -3.5572    3.5279   -2.1382 H   0  0  0  0  0  0  0  0  0  0  0  0
   -4.2838    2.2804   -3.1482 H   0  0  0  0  0  0  0  0  0  0  0  0
   -2.9502   -0.6062   -1.1859 H   0  0  0  0  0  0  0  0  0  0  0  0
   -1.4849    0.3448   -1.4144 H   0  0  0  0  0  0  0  0  0  0  0  0
   -2.2262    3.2241   -4.1894 H   0  0  0  0  0  0  0  0  0  0  0  0
   -1.2919    2.7484   -2.7718 H   0  0  0  0  0  0  0  0  0  0  0  0
   -3.6392   -0.0705   -3.5314 H   0  0  0  0  0  0  0  0  0  0  0  0
   -0.9588   -1.4457   -3.1733 H   0  0  0  0  0  0  0  0  0  0  0  0
   -0.9374    0.9333   -4.0522 H   0  0  0  0  0  0  0  0  0  0  0  0
   -2.3086    1.1023   -4.9360 H   0  0  0  0  0  0  0  0  0  0  0  0
   -2.4576   -3.2988   -3.3785 H   0  0  0  0  0  0  0  0  0  0  0  0
  1  2  2  0
  1  3  1  0
  1 27  1  0
  2  5  1  0
  2 28  1  0
  3  6  2  0
  3 29  1  0
  4  7  1  0
  4  9  2  0
  4 30  1  0
  5  7  2  0
  5  8  1  0
  6  8  1  0
  6 16  1  0
  7 15  1  0
  8 18  2  0
  9 17  1  0
  9 18  1  0
 10 11  1  0
 10 12  1  0
 10 31  1  0
 10 32  1  0
 11 13  1  0
 11 33  1  0
 11 34  1  0
 12 14  1  0
 12 35  1  0
 12 36  1  0
 13 19  1  0
 13 37  1  0
 13 38  1  0
 14 15  1  0
 14 19  1  0
 14 39  1  6
 15 20  1  0
 15 40  1  1
 16 21  1  0
 16 22  1  0
 16 23  1  0
 17 24  1  0
 17 25  1  0
 17 26  1  0
 19 41  1  0
 19 42  1  0
 20 43  1  0
M  CHG  1  19   1
M  END
>  <group_name>  (1) 
RCH

>  <molecule_index>  (1) 
00337

>  <conformer_index>  (1) 
01

>  <method>  (1) 
openff-1.3.0

>  <basis>  (1) 
smirnoff

>  <program>  (1) 
openmm

>  <initial_energy>  (1) 
160.18269630586556 kilocalorie / mole

>  <final_energy>  (1) 
146.8329261068809 kilocalorie / mole

$$$$
