RCH-00786-03
     RDKit          3D

 43 45  0  0  0  0  0  0  0  0999 V2000
   -2.0175   -1.7034   -7.9517 C   0  0  0  0  0  0  0  0  0  0  0  0
   -2.8105   -1.2783   -6.8884 C   0  0  0  0  0  0  0  0  0  0  0  0
   -1.1406   -0.8215   -8.5711 C   0  0  0  0  0  0  0  0  0  0  0  0
   -3.3990    1.8889   -5.0127 C   0  0  0  0  0  0  0  0  0  0  0  0
   -2.7510    0.0540   -6.4171 C   0  0  0  0  0  0  0  0  0  0  0  0
   -1.0445    0.5154   -8.1409 C   0  0  0  0  0  0  0  0  0  0  0  0
   -3.5410    0.5365   -5.3343 C   0  0  0  0  0  0  0  0  0  0  0  0
   -1.8544    0.9595   -7.0702 C   0  0  0  0  0  0  0  0  0  0  0  0
   -2.5063    2.7298   -5.6901 C   0  0  0  0  0  0  0  0  0  0  0  0
   -4.0201   -2.2307   -1.1597 C   0  0  0  0  0  0  0  0  0  0  0  0
   -3.1018   -3.3129   -1.7446 C   0  0  0  0  0  0  0  0  0  0  0  0
   -4.7728   -1.5018   -2.2820 C   0  0  0  0  0  0  0  0  0  0  0  0
   -2.1627   -2.7205   -2.7986 C   0  0  0  0  0  0  0  0  0  0  0  0
   -3.7896   -0.9375   -3.3223 C   0  0  2  0  0  0  0  0  0  0  0  0
   -4.5349   -0.2549   -4.4894 C   0  0  2  0  0  0  0  0  0  0  0  0
   -0.0787    1.4724   -8.8300 C   0  0  0  0  0  0  0  0  0  0  0  0
   -2.4021    4.1969   -5.2595 C   0  0  0  0  0  0  0  0  0  0  0  0
   -1.7459    2.2461   -6.6924 N   0  0  0  0  0  0  0  0  0  0  0  0
   -2.9583   -2.0381   -3.8391 N   0  0  0  0  0  0  0  0  0  0  0  0
   -5.2913   -1.2096   -5.2442 O   0  0  0  0  0  0  0  0  0  0  0  0
    0.8503    1.9277   -7.9426 F   0  0  0  0  0  0  0  0  0  0  0  0
    0.6082    0.8455   -9.8276 F   0  0  0  0  0  0  0  0  0  0  0  0
   -0.7538    2.5072   -9.4044 F   0  0  0  0  0  0  0  0  0  0  0  0
   -3.6205    4.7960   -5.3989 F   0  0  0  0  0  0  0  0  0  0  0  0
   -2.0526    4.2486   -3.9403 F   0  0  0  0  0  0  0  0  0  0  0  0
   -1.4816    4.9010   -5.9799 F   0  0  0  0  0  0  0  0  0  0  0  0
   -2.0875   -2.7273   -8.3147 H   0  0  0  0  0  0  0  0  0  0  0  0
   -3.4780   -2.0293   -6.4878 H   0  0  0  0  0  0  0  0  0  0  0  0
   -0.5412   -1.1940   -9.4007 H   0  0  0  0  0  0  0  0  0  0  0  0
   -3.9853    2.3324   -4.2116 H   0  0  0  0  0  0  0  0  0  0  0  0
   -3.4238   -1.5109   -0.5870 H   0  0  0  0  0  0  0  0  0  0  0  0
   -4.7363   -2.6857   -0.4655 H   0  0  0  0  0  0  0  0  0  0  0  0
   -2.5122   -3.7701   -0.9420 H   0  0  0  0  0  0  0  0  0  0  0  0
   -3.7091   -4.1069   -2.1933 H   0  0  0  0  0  0  0  0  0  0  0  0
   -5.4735   -2.1960   -2.7600 H   0  0  0  0  0  0  0  0  0  0  0  0
   -5.3678   -0.6881   -1.8526 H   0  0  0  0  0  0  0  0  0  0  0  0
   -1.4766   -2.0137   -2.3132 H   0  0  0  0  0  0  0  0  0  0  0  0
   -1.5495   -3.5223   -3.2316 H   0  0  0  0  0  0  0  0  0  0  0  0
   -3.1623   -0.1830   -2.8300 H   0  0  0  0  0  0  0  0  0  0  0  0
   -5.2480    0.4574   -4.0561 H   0  0  0  0  0  0  0  0  0  0  0  0
   -3.6020   -2.6918   -4.2925 H   0  0  0  0  0  0  0  0  0  0  0  0
   -2.3515   -1.6533   -4.5701 H   0  0  0  0  0  0  0  0  0  0  0  0
   -5.7627   -0.7621   -5.9754 H   0  0  0  0  0  0  0  0  0  0  0  0
  1  2  2  0
  1  3  1  0
  1 27  1  0
  2  5  1  0
  2 28  1  0
  3  6  2  0
  3 29  1  0
  4  7  1  0
  4  9  2  0
  4 30  1  0
  5  7  2  0
  5  8  1  0
  6  8  1  0
  6 16  1  0
  7 15  1  0
  8 18  2  0
  9 17  1  0
  9 18  1  0
 10 11  1  0
 10 12  1  0
 10 31  1  0
 10 32  1  0
 11 13  1  0
 11 33  1  0
 11 34  1  0
 12 14  1  0
 12 35  1  0
 12 36  1  0
 13 19  1  0
 13 37  1  0
 13 38  1  0
 14 15  1  0
 14 19  1  0
 14 39  1  1
 15 20  1  0
 15 40  1  1
 16 21  1  0
 16 22  1  0
 16 23  1  0
 17 24  1  0
 17 25  1  0
 17 26  1  0
 19 41  1  0
 19 42  1  0
 20 43  1  0
M  CHG  1  19   1
M  END
>  <group_name>  (1) 
RCH

>  <molecule_index>  (1) 
00786

>  <conformer_index>  (1) 
03

>  <method>  (1) 
openff-1.3.0

>  <basis>  (1) 
smirnoff

>  <program>  (1) 
openmm

>  <initial_energy>  (1) 
145.70271416410637 kilocalorie / mole

>  <final_energy>  (1) 
135.11455593952502 kilocalorie / mole

$$$$
