RCH-00068-08
     RDKit          3D

 43 45  0  0  0  0  0  0  0  0999 V2000
    5.1327   -3.8121   -5.3384 C   0  0  0  0  0  0  0  0  0  0  0  0
    3.9488   -3.4000   -4.7300 C   0  0  0  0  0  0  0  0  0  0  0  0
    5.5489   -3.2312   -6.5322 C   0  0  0  0  0  0  0  0  0  0  0  0
    1.2814   -0.8927   -5.3574 C   0  0  0  0  0  0  0  0  0  0  0  0
    3.1543   -2.3861   -5.3084 C   0  0  0  0  0  0  0  0  0  0  0  0
    4.7884   -2.2132   -7.1404 C   0  0  0  0  0  0  0  0  0  0  0  0
    1.9469   -1.9429   -4.7208 C   0  0  0  0  0  0  0  0  0  0  0  0
    3.5936   -1.7786   -6.5233 C   0  0  0  0  0  0  0  0  0  0  0  0
    1.7591   -0.3246   -6.5460 C   0  0  0  0  0  0  0  0  0  0  0  0
   -0.0295   -5.1920   -2.2459 C   0  0  0  0  0  0  0  0  0  0  0  0
    0.0194   -6.0804   -3.4952 C   0  0  0  0  0  0  0  0  0  0  0  0
   -0.6970   -3.8471   -2.5707 C   0  0  0  0  0  0  0  0  0  0  0  0
    0.6869   -5.3493   -4.6620 C   0  0  0  0  0  0  0  0  0  0  0  0
   -0.0592   -3.1418   -3.7839 C   0  0  1  0  0  0  0  0  0  0  0  0
    1.3294   -2.5335   -3.4616 C   0  0  2  0  0  0  0  0  0  0  0  0
    5.2551   -1.5860   -8.4480 C   0  0  0  0  0  0  0  0  0  0  0  0
    0.9583    0.8084   -7.1972 C   0  0  0  0  0  0  0  0  0  0  0  0
    2.8900   -0.7944   -7.1141 N   0  0  0  0  0  0  0  0  0  0  0  0
   -0.0249   -4.0805   -4.9333 N   0  0  0  0  0  0  0  0  0  0  0  0
    1.1580   -1.4747   -2.5177 O   0  0  0  0  0  0  0  0  0  0  0  0
    5.4947   -0.2552   -8.2836 F   0  0  0  0  0  0  0  0  0  0  0  0
    4.3306   -1.7993   -9.4266 F   0  0  0  0  0  0  0  0  0  0  0  0
    6.4194   -2.1514   -8.8771 F   0  0  0  0  0  0  0  0  0  0  0  0
   -0.3143    0.3685   -7.4293 F   0  0  0  0  0  0  0  0  0  0  0  0
    1.4924    1.2242   -8.3821 F   0  0  0  0  0  0  0  0  0  0  0  0
    0.8952    1.8709   -6.3436 F   0  0  0  0  0  0  0  0  0  0  0  0
    5.7457   -4.5852   -4.8787 H   0  0  0  0  0  0  0  0  0  0  0  0
    3.7064   -3.8865   -3.7927 H   0  0  0  0  0  0  0  0  0  0  0  0
    6.4811   -3.5815   -6.9735 H   0  0  0  0  0  0  0  0  0  0  0  0
    0.3702   -0.4833   -4.9269 H   0  0  0  0  0  0  0  0  0  0  0  0
   -0.5897   -5.6990   -1.4517 H   0  0  0  0  0  0  0  0  0  0  0  0
    0.9839   -5.0259   -1.8649 H   0  0  0  0  0  0  0  0  0  0  0  0
   -0.9979   -6.3753   -3.7757 H   0  0  0  0  0  0  0  0  0  0  0  0
    0.5719   -6.9999   -3.2713 H   0  0  0  0  0  0  0  0  0  0  0  0
   -0.6564   -3.1935   -1.6916 H   0  0  0  0  0  0  0  0  0  0  0  0
   -1.7588   -4.0186   -2.7773 H   0  0  0  0  0  0  0  0  0  0  0  0
    0.6811   -6.0007   -5.5469 H   0  0  0  0  0  0  0  0  0  0  0  0
    1.7382   -5.1574   -4.4128 H   0  0  0  0  0  0  0  0  0  0  0  0
   -0.7038   -2.2901   -4.0370 H   0  0  0  0  0  0  0  0  0  0  0  0
    1.9641   -3.2999   -3.0173 H   0  0  0  0  0  0  0  0  0  0  0  0
   -0.9865   -4.2882   -5.2125 H   0  0  0  0  0  0  0  0  0  0  0  0
    0.4279   -3.5994   -5.7170 H   0  0  0  0  0  0  0  0  0  0  0  0
    1.9939   -0.9913   -2.3751 H   0  0  0  0  0  0  0  0  0  0  0  0
  1  2  2  0
  1  3  1  0
  1 27  1  0
  2  5  1  0
  2 28  1  0
  3  6  2  0
  3 29  1  0
  4  7  1  0
  4  9  2  0
  4 30  1  0
  5  7  2  0
  5  8  1  0
  6  8  1  0
  6 16  1  0
  7 15  1  0
  8 18  2  0
  9 17  1  0
  9 18  1  0
 10 11  1  0
 10 12  1  0
 10 31  1  0
 10 32  1  0
 11 13  1  0
 11 33  1  0
 11 34  1  0
 12 14  1  0
 12 35  1  0
 12 36  1  0
 13 19  1  0
 13 37  1  0
 13 38  1  0
 14 15  1  0
 14 19  1  0
 14 39  1  6
 15 20  1  0
 15 40  1  1
 16 21  1  0
 16 22  1  0
 16 23  1  0
 17 24  1  0
 17 25  1  0
 17 26  1  0
 19 41  1  0
 19 42  1  0
 20 43  1  0
M  CHG  1  19   1
M  END
>  <group_name>  (1) 
RCH

>  <molecule_index>  (1) 
00068

>  <conformer_index>  (1) 
08

>  <method>  (1) 
openff-1.3.0

>  <basis>  (1) 
smirnoff

>  <program>  (1) 
openmm

>  <initial_energy>  (1) 
154.62879510421322 kilocalorie / mole

>  <final_energy>  (1) 
141.89689966952037 kilocalorie / mole

$$$$
