RCH-00068-00
     RDKit          3D

 43 45  0  0  0  0  0  0  0  0999 V2000
    5.0939   -3.9901   -6.3784 C   0  0  0  0  0  0  0  0  0  0  0  0
    4.1932   -3.7275   -5.3486 C   0  0  0  0  0  0  0  0  0  0  0  0
    5.2327   -3.0956   -7.4349 C   0  0  0  0  0  0  0  0  0  0  0  0
    1.8081   -1.0405   -4.4171 C   0  0  0  0  0  0  0  0  0  0  0  0
    3.4099   -2.5532   -5.3541 C   0  0  0  0  0  0  0  0  0  0  0  0
    4.4722   -1.9105   -7.4787 C   0  0  0  0  0  0  0  0  0  0  0  0
    2.4821   -2.2648   -4.3256 C   0  0  0  0  0  0  0  0  0  0  0  0
    3.5635   -1.6316   -6.4327 C   0  0  0  0  0  0  0  0  0  0  0  0
    1.9996   -0.1671   -5.4976 C   0  0  0  0  0  0  0  0  0  0  0  0
   -0.0865   -6.0024   -4.6428 C   0  0  0  0  0  0  0  0  0  0  0  0
   -1.2783   -5.5581   -3.7755 C   0  0  0  0  0  0  0  0  0  0  0  0
    1.1034   -5.0237   -4.5764 C   0  0  0  0  0  0  0  0  0  0  0  0
   -1.4650   -4.0393   -3.8342 C   0  0  0  0  0  0  0  0  0  0  0  0
    1.0062   -4.1137   -3.3425 C   0  0  1  0  0  0  0  0  0  0  0  0
    2.2286   -3.1866   -3.1334 C   0  0  2  0  0  0  0  0  0  0  0  0
    4.6326   -0.9403   -8.6419 C   0  0  0  0  0  0  0  0  0  0  0  0
    1.1951    1.1365   -5.5399 C   0  0  0  0  0  0  0  0  0  0  0  0
    2.8560   -0.4875   -6.4884 N   0  0  0  0  0  0  0  0  0  0  0  0
   -0.2370   -3.3123   -3.4209 N   0  0  0  0  0  0  0  0  0  0  0  0
    1.9467   -2.3988   -1.9668 O   0  0  0  0  0  0  0  0  0  0  0  0
    5.0801    0.2681   -8.1991 F   0  0  0  0  0  0  0  0  0  0  0  0
    5.5481   -1.3977   -9.5431 F   0  0  0  0  0  0  0  0  0  0  0  0
    3.4532   -0.8069   -9.3121 F   0  0  0  0  0  0  0  0  0  0  0  0
    1.3858    1.8479   -6.6882 F   0  0  0  0  0  0  0  0  0  0  0  0
   -0.1335    0.8322   -5.4344 F   0  0  0  0  0  0  0  0  0  0  0  0
    1.5365    1.9140   -4.4718 F   0  0  0  0  0  0  0  0  0  0  0  0
    5.6973   -4.8956   -6.3606 H   0  0  0  0  0  0  0  0  0  0  0  0
    4.1450   -4.4671   -4.5579 H   0  0  0  0  0  0  0  0  0  0  0  0
    5.9479   -3.3389   -8.2195 H   0  0  0  0  0  0  0  0  0  0  0  0
    1.1207   -0.7200   -3.6393 H   0  0  0  0  0  0  0  0  0  0  0  0
    0.2339   -6.9983   -4.3155 H   0  0  0  0  0  0  0  0  0  0  0  0
   -0.4062   -6.1012   -5.6866 H   0  0  0  0  0  0  0  0  0  0  0  0
   -2.1909   -6.0620   -4.1133 H   0  0  0  0  0  0  0  0  0  0  0  0
   -1.1118   -5.8622   -2.7360 H   0  0  0  0  0  0  0  0  0  0  0  0
    1.1195   -4.4133   -5.4862 H   0  0  0  0  0  0  0  0  0  0  0  0
    2.0351   -5.5978   -4.5519 H   0  0  0  0  0  0  0  0  0  0  0  0
   -1.7372   -3.7664   -4.8626 H   0  0  0  0  0  0  0  0  0  0  0  0
   -2.3155   -3.7579   -3.1984 H   0  0  0  0  0  0  0  0  0  0  0  0
    0.9572   -4.7645   -2.4600 H   0  0  0  0  0  0  0  0  0  0  0  0
    3.1115   -3.7971   -2.9234 H   0  0  0  0  0  0  0  0  0  0  0  0
   -0.3602   -2.8879   -2.4957 H   0  0  0  0  0  0  0  0  0  0  0  0
   -0.0625   -2.5458   -4.0729 H   0  0  0  0  0  0  0  0  0  0  0  0
    2.7187   -1.8456   -1.7334 H   0  0  0  0  0  0  0  0  0  0  0  0
  1  2  2  0
  1  3  1  0
  1 27  1  0
  2  5  1  0
  2 28  1  0
  3  6  2  0
  3 29  1  0
  4  7  1  0
  4  9  2  0
  4 30  1  0
  5  7  2  0
  5  8  1  0
  6  8  1  0
  6 16  1  0
  7 15  1  0
  8 18  2  0
  9 17  1  0
  9 18  1  0
 10 11  1  0
 10 12  1  0
 10 31  1  0
 10 32  1  0
 11 13  1  0
 11 33  1  0
 11 34  1  0
 12 14  1  0
 12 35  1  0
 12 36  1  0
 13 19  1  0
 13 37  1  0
 13 38  1  0
 14 15  1  0
 14 19  1  0
 14 39  1  1
 15 20  1  0
 15 40  1  1
 16 21  1  0
 16 22  1  0
 16 23  1  0
 17 24  1  0
 17 25  1  0
 17 26  1  0
 19 41  1  0
 19 42  1  0
 20 43  1  0
M  CHG  1  19   1
M  END
>  <group_name>  (1) 
RCH

>  <molecule_index>  (1) 
00068

>  <conformer_index>  (1) 
00

>  <method>  (1) 
openff-1.3.0

>  <basis>  (1) 
smirnoff

>  <program>  (1) 
openmm

>  <initial_energy>  (1) 
158.38624306297592 kilocalorie / mole

>  <final_energy>  (1) 
141.12770435078508 kilocalorie / mole

$$$$
