RCH-01195-06
     RDKit          3D

 28 28  0  0  0  0  0  0  0  0999 V2000
   -0.1715   -1.9075    1.9019 C   0  0  0  0  0  0  0  0  0  0  0  0
    1.7606    0.8285    2.5880 C   0  0  0  0  0  0  0  0  0  0  0  0
    1.9756    0.8684    3.9616 C   0  0  0  0  0  0  0  0  0  0  0  0
   -0.3607    1.8746    3.0147 C   0  0  0  0  0  0  0  0  0  0  0  0
    0.5605    1.3443    2.0945 C   0  0  0  0  0  0  0  0  0  0  0  0
    1.0159    1.4218    4.8312 C   0  0  0  0  0  0  0  0  0  0  0  0
    1.2005    2.2340   -0.1463 C   0  0  0  0  0  0  0  0  0  0  0  0
   -0.4302   -0.1988   -1.7230 C   0  0  0  0  0  0  0  0  0  0  0  0
    0.2342    1.3078    0.6090 C   0  0  1  0  0  0  0  0  0  0  0  0
    1.3175    1.4464    6.3351 C   0  0  0  0  0  0  0  0  0  0  0  0
    0.4030   -2.2615    2.8488 N   0  0  0  0  0  0  0  0  0  0  0  0
   -0.1465    1.9294    4.3404 N   0  0  0  0  0  0  0  0  0  0  0  0
   -0.8102   -1.4377    0.8228 N   0  0  0  0  0  0  0  0  0  0  0  0
    1.6164   -0.9386   -0.1672 O   0  0  0  0  0  0  0  0  0  0  0  0
    1.5324    0.1771    6.7894 F   0  0  0  0  0  0  0  0  0  0  0  0
    2.4530    2.1723    6.5591 F   0  0  0  0  0  0  0  0  0  0  0  0
    0.3093    2.0001    7.0728 F   0  0  0  0  0  0  0  0  0  0  0  0
    0.2464   -0.4108   -0.0612 S   0  0  1  0  0  0  0  0  0  0  0  0
    2.5118    0.3843    1.9368 H   0  0  0  0  0  0  0  0  0  0  0  0
    2.8929    0.4579    4.3744 H   0  0  0  0  0  0  0  0  0  0  0  0
   -1.3011    2.2704    2.6426 H   0  0  0  0  0  0  0  0  0  0  0  0
    2.2303    1.8698   -0.0683 H   0  0  0  0  0  0  0  0  0  0  0  0
    0.9348    2.2937   -1.2059 H   0  0  0  0  0  0  0  0  0  0  0  0
    1.1586    3.2452    0.2716 H   0  0  0  0  0  0  0  0  0  0  0  0
   -0.6846   -1.1866   -2.1118 H   0  0  0  0  0  0  0  0  0  0  0  0
   -1.3292    0.4166   -1.6769 H   0  0  0  0  0  0  0  0  0  0  0  0
    0.3245    0.2585   -2.3637 H   0  0  0  0  0  0  0  0  0  0  0  0
   -0.7839    1.6774    0.4664 H   0  0  0  0  0  0  0  0  0  0  0  0
  1 11  3  0
  1 13  1  0
  2  3  2  0
  2  5  1  0
  2 19  1  0
  3  6  1  0
  3 20  1  0
  4  5  2  0
  4 12  1  0
  4 21  1  0
  5  9  1  0
  6 10  1  0
  6 12  2  0
  7  9  1  0
  7 22  1  0
  7 23  1  0
  7 24  1  0
 18  8  1  6
  8 25  1  0
  8 26  1  0
  8 27  1  0
  9 18  1  0
  9 28  1  1
 10 15  1  0
 10 16  1  0
 10 17  1  0
 13 18  2  0
 14 18  2  0
M  END
>  <group_name>  (1) 
RCH

>  <molecule_index>  (1) 
01195

>  <conformer_index>  (1) 
06

>  <method>  (1) 
openff-1.3.0

>  <basis>  (1) 
smirnoff

>  <program>  (1) 
openmm

>  <initial_energy>  (1) 
26.895046229715778 kilocalorie / mole

>  <final_energy>  (1) 
7.122918210349346 kilocalorie / mole

$$$$
