RCH-00786-05
     RDKit          3D

 43 45  0  0  0  0  0  0  0  0999 V2000
   -3.2905   -1.0741   -8.4897 C   0  0  0  0  0  0  0  0  0  0  0  0
   -2.8206   -1.3873   -7.2157 C   0  0  0  0  0  0  0  0  0  0  0  0
   -3.1396    0.2127   -8.9976 C   0  0  0  0  0  0  0  0  0  0  0  0
   -1.0067    0.3327   -4.4736 C   0  0  0  0  0  0  0  0  0  0  0  0
   -2.1786   -0.4102   -6.4238 C   0  0  0  0  0  0  0  0  0  0  0  0
   -2.5014    1.2163   -8.2416 C   0  0  0  0  0  0  0  0  0  0  0  0
   -1.6910   -0.6972   -5.1268 C   0  0  0  0  0  0  0  0  0  0  0  0
   -2.0047    0.9040   -6.9560 C   0  0  0  0  0  0  0  0  0  0  0  0
   -0.8608    1.6049   -5.0407 C   0  0  0  0  0  0  0  0  0  0  0  0
   -4.2752   -1.3851   -1.4106 C   0  0  0  0  0  0  0  0  0  0  0  0
   -5.5502   -1.6670   -2.2239 C   0  0  0  0  0  0  0  0  0  0  0  0
   -3.0331   -1.2094   -2.3019 C   0  0  0  0  0  0  0  0  0  0  0  0
   -5.4486   -1.0579   -3.6228 C   0  0  0  0  0  0  0  0  0  0  0  0
   -3.1375   -2.0803   -3.5723 C   0  0  2  0  0  0  0  0  0  0  0  0
   -1.8455   -2.0528   -4.4412 C   0  0  2  0  0  0  0  0  0  0  0  0
   -2.3428    2.6210   -8.8102 C   0  0  0  0  0  0  0  0  0  0  0  0
   -0.1279    2.6878   -4.2419 C   0  0  0  0  0  0  0  0  0  0  0  0
   -1.3839    1.8720   -6.2573 N   0  0  0  0  0  0  0  0  0  0  0  0
   -4.3123   -1.6460   -4.3785 N   0  0  0  0  0  0  0  0  0  0  0  0
   -0.6850   -2.3350   -3.6451 O   0  0  0  0  0  0  0  0  0  0  0  0
   -1.0260    2.9467   -8.9345 F   0  0  0  0  0  0  0  0  0  0  0  0
   -2.8954    2.7132  -10.0536 F   0  0  0  0  0  0  0  0  0  0  0  0
   -2.9976    3.5219   -8.0241 F   0  0  0  0  0  0  0  0  0  0  0  0
   -0.7471    2.8420   -3.0337 F   0  0  0  0  0  0  0  0  0  0  0  0
    1.1603    2.2994   -4.0158 F   0  0  0  0  0  0  0  0  0  0  0  0
   -0.1174    3.8976   -4.8739 F   0  0  0  0  0  0  0  0  0  0  0  0
   -3.7658   -1.8364   -9.1045 H   0  0  0  0  0  0  0  0  0  0  0  0
   -2.9477   -2.4168   -6.9016 H   0  0  0  0  0  0  0  0  0  0  0  0
   -3.5176    0.4146   -9.9990 H   0  0  0  0  0  0  0  0  0  0  0  0
   -0.5629    0.1621   -3.4957 H   0  0  0  0  0  0  0  0  0  0  0  0
   -4.4090   -0.4773   -0.8108 H   0  0  0  0  0  0  0  0  0  0  0  0
   -4.1146   -2.2087   -0.7053 H   0  0  0  0  0  0  0  0  0  0  0  0
   -6.4195   -1.2567   -1.6974 H   0  0  0  0  0  0  0  0  0  0  0  0
   -5.7061   -2.7481   -2.3079 H   0  0  0  0  0  0  0  0  0  0  0  0
   -2.9364   -0.1551   -2.5814 H   0  0  0  0  0  0  0  0  0  0  0  0
   -2.1405   -1.4680   -1.7216 H   0  0  0  0  0  0  0  0  0  0  0  0
   -5.3151    0.0275   -3.5183 H   0  0  0  0  0  0  0  0  0  0  0  0
   -6.3962   -1.2116   -4.1565 H   0  0  0  0  0  0  0  0  0  0  0  0
   -3.2798   -3.1146   -3.2342 H   0  0  0  0  0  0  0  0  0  0  0  0
   -1.9045   -2.8380   -5.1994 H   0  0  0  0  0  0  0  0  0  0  0  0
   -3.9665   -0.9427   -5.0435 H   0  0  0  0  0  0  0  0  0  0  0  0
   -4.6545   -2.4384   -4.9238 H   0  0  0  0  0  0  0  0  0  0  0  0
   -0.5439   -3.2897   -3.5083 H   0  0  0  0  0  0  0  0  0  0  0  0
  1  2  2  0
  1  3  1  0
  1 27  1  0
  2  5  1  0
  2 28  1  0
  3  6  2  0
  3 29  1  0
  4  7  1  0
  4  9  2  0
  4 30  1  0
  5  7  2  0
  5  8  1  0
  6  8  1  0
  6 16  1  0
  7 15  1  0
  8 18  2  0
  9 17  1  0
  9 18  1  0
 10 11  1  0
 10 12  1  0
 10 31  1  0
 10 32  1  0
 11 13  1  0
 11 33  1  0
 11 34  1  0
 12 14  1  0
 12 35  1  0
 12 36  1  0
 13 19  1  0
 13 37  1  0
 13 38  1  0
 14 15  1  0
 14 19  1  0
 14 39  1  1
 15 20  1  0
 15 40  1  6
 16 21  1  0
 16 22  1  0
 16 23  1  0
 17 24  1  0
 17 25  1  0
 17 26  1  0
 19 41  1  0
 19 42  1  0
 20 43  1  0
M  CHG  1  19   1
M  END
>  <group_name>  (1) 
RCH

>  <molecule_index>  (1) 
00786

>  <conformer_index>  (1) 
05

>  <method>  (1) 
openff-1.3.0

>  <basis>  (1) 
smirnoff

>  <program>  (1) 
openmm

>  <initial_energy>  (1) 
168.11536630129564 kilocalorie / mole

>  <final_energy>  (1) 
149.3869879724879 kilocalorie / mole

$$$$
