RCH-00337-03
     RDKit          3D

 43 45  0  0  0  0  0  0  0  0999 V2000
    1.5119   -2.1327   -5.6839 C   0  0  0  0  0  0  0  0  0  0  0  0
    0.2770   -1.8750   -5.0921 C   0  0  0  0  0  0  0  0  0  0  0  0
    1.6188   -2.2378   -7.0677 C   0  0  0  0  0  0  0  0  0  0  0  0
   -3.2235   -1.3319   -6.1884 C   0  0  0  0  0  0  0  0  0  0  0  0
   -0.8821   -1.7224   -5.8815 C   0  0  0  0  0  0  0  0  0  0  0  0
    0.4859   -2.0848   -7.8918 C   0  0  0  0  0  0  0  0  0  0  0  0
   -2.1453   -1.4639   -5.3064 C   0  0  0  0  0  0  0  0  0  0  0  0
   -0.7711   -1.8269   -7.2996 C   0  0  0  0  0  0  0  0  0  0  0  0
   -3.0603   -1.4378   -7.5770 C   0  0  0  0  0  0  0  0  0  0  0  0
   -2.6467    2.5448   -3.4198 C   0  0  0  0  0  0  0  0  0  0  0  0
   -3.0509    2.5179   -1.9423 C   0  0  0  0  0  0  0  0  0  0  0  0
   -2.8408    1.1599   -4.0490 C   0  0  0  0  0  0  0  0  0  0  0  0
   -2.2773    1.4303   -1.1969 C   0  0  0  0  0  0  0  0  0  0  0  0
   -2.0768    0.0689   -3.2676 C   0  0  2  0  0  0  0  0  0  0  0  0
   -2.3693   -1.3573   -3.8036 C   0  0  1  0  0  0  0  0  0  0  0  0
    0.6178   -2.1970   -9.4049 C   0  0  0  0  0  0  0  0  0  0  0  0
   -4.2878   -1.2637   -8.4780 C   0  0  0  0  0  0  0  0  0  0  0  0
   -1.8412   -1.6813   -8.1034 N   0  0  0  0  0  0  0  0  0  0  0  0
   -2.4987    0.1220   -1.8497 N   0  0  0  0  0  0  0  0  0  0  0  0
   -3.7117   -1.7237   -3.4374 O   0  0  0  0  0  0  0  0  0  0  0  0
    1.9078   -2.4485   -9.7692 F   0  0  0  0  0  0  0  0  0  0  0  0
   -0.1344   -3.2311   -9.8754 F   0  0  0  0  0  0  0  0  0  0  0  0
    0.2621   -1.0243  -10.0012 F   0  0  0  0  0  0  0  0  0  0  0  0
   -5.2265   -2.1985   -8.1473 F   0  0  0  0  0  0  0  0  0  0  0  0
   -4.8272   -0.0272   -8.2640 F   0  0  0  0  0  0  0  0  0  0  0  0
   -3.9981   -1.3870   -9.8059 F   0  0  0  0  0  0  0  0  0  0  0  0
    2.4007   -2.2553   -5.0684 H   0  0  0  0  0  0  0  0  0  0  0  0
    0.2634   -1.8030   -4.0107 H   0  0  0  0  0  0  0  0  0  0  0  0
    2.6017   -2.4411   -7.4903 H   0  0  0  0  0  0  0  0  0  0  0  0
   -4.2250   -1.1275   -5.8194 H   0  0  0  0  0  0  0  0  0  0  0  0
   -3.2508    3.2848   -3.9576 H   0  0  0  0  0  0  0  0  0  0  0  0
   -1.5981    2.8497   -3.5128 H   0  0  0  0  0  0  0  0  0  0  0  0
   -2.8486    3.4935   -1.4861 H   0  0  0  0  0  0  0  0  0  0  0  0
   -4.1279    2.3355   -1.8567 H   0  0  0  0  0  0  0  0  0  0  0  0
   -3.9101    0.9225   -4.0771 H   0  0  0  0  0  0  0  0  0  0  0  0
   -2.4886    1.1953   -5.0857 H   0  0  0  0  0  0  0  0  0  0  0  0
   -1.2096    1.6869   -1.1974 H   0  0  0  0  0  0  0  0  0  0  0  0
   -2.6047    1.4092   -0.1484 H   0  0  0  0  0  0  0  0  0  0  0  0
   -1.0020    0.2667   -3.3657 H   0  0  0  0  0  0  0  0  0  0  0  0
   -1.7025   -2.0658   -3.3021 H   0  0  0  0  0  0  0  0  0  0  0  0
   -2.0270   -0.6161   -1.3251 H   0  0  0  0  0  0  0  0  0  0  0  0
   -3.4971   -0.1156   -1.8525 H   0  0  0  0  0  0  0  0  0  0  0  0
   -3.9489   -2.5819   -3.8427 H   0  0  0  0  0  0  0  0  0  0  0  0
  1  2  2  0
  1  3  1  0
  1 27  1  0
  2  5  1  0
  2 28  1  0
  3  6  2  0
  3 29  1  0
  4  7  1  0
  4  9  2  0
  4 30  1  0
  5  7  2  0
  5  8  1  0
  6  8  1  0
  6 16  1  0
  7 15  1  0
  8 18  2  0
  9 17  1  0
  9 18  1  0
 10 11  1  0
 10 12  1  0
 10 31  1  0
 10 32  1  0
 11 13  1  0
 11 33  1  0
 11 34  1  0
 12 14  1  0
 12 35  1  0
 12 36  1  0
 13 19  1  0
 13 37  1  0
 13 38  1  0
 14 15  1  0
 14 19  1  0
 14 39  1  1
 15 20  1  0
 15 40  1  1
 16 21  1  0
 16 22  1  0
 16 23  1  0
 17 24  1  0
 17 25  1  0
 17 26  1  0
 19 41  1  0
 19 42  1  0
 20 43  1  0
M  CHG  1  19   1
M  END
>  <group_name>  (1) 
RCH

>  <molecule_index>  (1) 
00337

>  <conformer_index>  (1) 
03

>  <method>  (1) 
openff-1.3.0

>  <basis>  (1) 
smirnoff

>  <program>  (1) 
openmm

>  <initial_energy>  (1) 
145.2302352332073 kilocalorie / mole

>  <final_energy>  (1) 
135.5621826246571 kilocalorie / mole

$$$$
