RCH-00337-09
     RDKit          3D

 43 45  0  0  0  0  0  0  0  0999 V2000
    1.5456   -2.6885   -5.6760 C   0  0  0  0  0  0  0  0  0  0  0  0
    0.5749   -1.8047   -5.2099 C   0  0  0  0  0  0  0  0  0  0  0  0
    1.4486   -3.2258   -6.9559 C   0  0  0  0  0  0  0  0  0  0  0  0
   -2.5353   -0.2341   -6.4792 C   0  0  0  0  0  0  0  0  0  0  0  0
   -0.5225   -1.4413   -6.0216 C   0  0  0  0  0  0  0  0  0  0  0  0
    0.3753   -2.8822   -7.8018 C   0  0  0  0  0  0  0  0  0  0  0  0
   -1.5250   -0.5523   -5.5635 C   0  0  0  0  0  0  0  0  0  0  0  0
   -0.6123   -1.9838   -7.3377 C   0  0  0  0  0  0  0  0  0  0  0  0
   -2.5763   -0.7950   -7.7649 C   0  0  0  0  0  0  0  0  0  0  0  0
   -4.5786    1.0909   -2.3608 C   0  0  0  0  0  0  0  0  0  0  0  0
   -3.6272    0.6329   -1.2523 C   0  0  0  0  0  0  0  0  0  0  0  0
   -3.9448    0.8456   -3.7421 C   0  0  0  0  0  0  0  0  0  0  0  0
   -2.2325    1.2666   -1.3637 C   0  0  0  0  0  0  0  0  0  0  0  0
   -2.4437    1.2429   -3.8571 C   0  0  2  0  0  0  0  0  0  0  0  0
   -1.4800    0.0485   -4.1600 C   0  0  1  0  0  0  0  0  0  0  0  0
    0.2847   -3.4728   -9.2028 C   0  0  0  0  0  0  0  0  0  0  0  0
   -3.7245   -0.4021   -8.7018 C   0  0  0  0  0  0  0  0  0  0  0  0
   -1.6220   -1.6597   -8.1652 N   0  0  0  0  0  0  0  0  0  0  0  0
   -2.0401    1.9987   -2.6411 N   0  0  0  0  0  0  0  0  0  0  0  0
   -1.6947   -1.0278   -3.2385 O   0  0  0  0  0  0  0  0  0  0  0  0
    0.3443   -2.4863  -10.1410 F   0  0  0  0  0  0  0  0  0  0  0  0
    1.3272   -4.3166   -9.4501 F   0  0  0  0  0  0  0  0  0  0  0  0
   -0.8561   -4.2057   -9.3386 F   0  0  0  0  0  0  0  0  0  0  0  0
   -4.9141   -0.7264   -8.1148 F   0  0  0  0  0  0  0  0  0  0  0  0
   -3.7057    0.9506   -8.8898 F   0  0  0  0  0  0  0  0  0  0  0  0
   -3.6573   -1.0132   -9.9199 F   0  0  0  0  0  0  0  0  0  0  0  0
    2.3872   -2.9620   -5.0426 H   0  0  0  0  0  0  0  0  0  0  0  0
    0.7179   -1.4154   -4.2067 H   0  0  0  0  0  0  0  0  0  0  0  0
    2.2279   -3.9133   -7.2816 H   0  0  0  0  0  0  0  0  0  0  0  0
   -3.3339    0.4570   -6.2443 H   0  0  0  0  0  0  0  0  0  0  0  0
   -4.8050    2.1555   -2.2359 H   0  0  0  0  0  0  0  0  0  0  0  0
   -5.5292    0.5501   -2.2868 H   0  0  0  0  0  0  0  0  0  0  0  0
   -4.0577    0.8539   -0.2695 H   0  0  0  0  0  0  0  0  0  0  0  0
   -3.5218   -0.4562   -1.3118 H   0  0  0  0  0  0  0  0  0  0  0  0
   -4.0673   -0.2135   -3.9958 H   0  0  0  0  0  0  0  0  0  0  0  0
   -4.5228    1.4080   -4.4830 H   0  0  0  0  0  0  0  0  0  0  0  0
   -2.0809    1.9397   -0.5093 H   0  0  0  0  0  0  0  0  0  0  0  0
   -1.4878    0.4644   -1.2683 H   0  0  0  0  0  0  0  0  0  0  0  0
   -2.3549    1.9149   -4.7206 H   0  0  0  0  0  0  0  0  0  0  0  0
   -0.4634    0.4332   -4.0264 H   0  0  0  0  0  0  0  0  0  0  0  0
   -1.0591    2.2731   -2.7223 H   0  0  0  0  0  0  0  0  0  0  0  0
   -2.6000    2.8524   -2.6014 H   0  0  0  0  0  0  0  0  0  0  0  0
   -1.4200   -1.8718   -3.6466 H   0  0  0  0  0  0  0  0  0  0  0  0
  1  2  2  0
  1  3  1  0
  1 27  1  0
  2  5  1  0
  2 28  1  0
  3  6  2  0
  3 29  1  0
  4  7  1  0
  4  9  2  0
  4 30  1  0
  5  7  2  0
  5  8  1  0
  6  8  1  0
  6 16  1  0
  7 15  1  0
  8 18  2  0
  9 17  1  0
  9 18  1  0
 10 11  1  0
 10 12  1  0
 10 31  1  0
 10 32  1  0
 11 13  1  0
 11 33  1  0
 11 34  1  0
 12 14  1  0
 12 35  1  0
 12 36  1  0
 13 19  1  0
 13 37  1  0
 13 38  1  0
 14 15  1  0
 14 19  1  0
 14 39  1  6
 15 20  1  0
 15 40  1  1
 16 21  1  0
 16 22  1  0
 16 23  1  0
 17 24  1  0
 17 25  1  0
 17 26  1  0
 19 41  1  0
 19 42  1  0
 20 43  1  0
M  CHG  1  19   1
M  END
>  <group_name>  (1) 
RCH

>  <molecule_index>  (1) 
00337

>  <conformer_index>  (1) 
09

>  <method>  (1) 
openff-1.3.0

>  <basis>  (1) 
smirnoff

>  <program>  (1) 
openmm

>  <initial_energy>  (1) 
166.5123874787704 kilocalorie / mole

>  <final_energy>  (1) 
154.61205105483364 kilocalorie / mole

$$$$
