RCH-00068-03
     RDKit          3D

 43 45  0  0  0  0  0  0  0  0999 V2000
    5.2297   -3.2333   -4.6609 C   0  0  0  0  0  0  0  0  0  0  0  0
    3.9685   -3.7052   -5.0180 C   0  0  0  0  0  0  0  0  0  0  0  0
    5.6525   -1.9763   -5.0756 C   0  0  0  0  0  0  0  0  0  0  0  0
    1.0743   -2.5114   -7.0370 C   0  0  0  0  0  0  0  0  0  0  0  0
    3.0929   -2.9281   -5.8102 C   0  0  0  0  0  0  0  0  0  0  0  0
    4.8198   -1.1661   -5.8699 C   0  0  0  0  0  0  0  0  0  0  0  0
    1.7948   -3.3654   -6.1986 C   0  0  0  0  0  0  0  0  0  0  0  0
    3.5438   -1.6433   -6.2494 C   0  0  0  0  0  0  0  0  0  0  0  0
    1.5679   -1.2641   -7.4390 C   0  0  0  0  0  0  0  0  0  0  0  0
   -1.2493   -3.4569   -2.9215 C   0  0  0  0  0  0  0  0  0  0  0  0
   -0.1872   -3.4704   -1.8132 C   0  0  0  0  0  0  0  0  0  0  0  0
   -0.5793   -3.4411   -4.3018 C   0  0  0  0  0  0  0  0  0  0  0  0
    0.7828   -4.6400   -2.0031 C   0  0  0  0  0  0  0  0  0  0  0  0
    0.4003   -4.6206   -4.4393 C   0  0  1  0  0  0  0  0  0  0  0  0
    1.1051   -4.6766   -5.8163 C   0  0  2  0  0  0  0  0  0  0  0  0
    5.2969    0.2100   -6.3195 C   0  0  0  0  0  0  0  0  0  0  0  0
    0.6956   -0.3772   -8.3348 C   0  0  0  0  0  0  0  0  0  0  0  0
    2.7819   -0.8511   -7.0245 N   0  0  0  0  0  0  0  0  0  0  0  0
    1.3893   -4.5676   -3.3491 N   0  0  0  0  0  0  0  0  0  0  0  0
    1.9957   -5.7978   -5.8290 O   0  0  0  0  0  0  0  0  0  0  0  0
    4.4718    1.1784   -5.8307 F   0  0  0  0  0  0  0  0  0  0  0  0
    6.5443    0.4795   -5.8385 F   0  0  0  0  0  0  0  0  0  0  0  0
    5.3739    0.2717   -7.6782 F   0  0  0  0  0  0  0  0  0  0  0  0
    0.4354   -1.0316   -9.5038 F   0  0  0  0  0  0  0  0  0  0  0  0
   -0.4933   -0.1438   -7.7038 F   0  0  0  0  0  0  0  0  0  0  0  0
    1.2757    0.8238   -8.6229 F   0  0  0  0  0  0  0  0  0  0  0  0
    5.8993   -3.8503   -4.0646 H   0  0  0  0  0  0  0  0  0  0  0  0
    3.7342   -4.7029   -4.6729 H   0  0  0  0  0  0  0  0  0  0  0  0
    6.6464   -1.6457   -4.7765 H   0  0  0  0  0  0  0  0  0  0  0  0
    0.0884   -2.7951   -7.3968 H   0  0  0  0  0  0  0  0  0  0  0  0
   -1.8929   -2.5765   -2.8098 H   0  0  0  0  0  0  0  0  0  0  0  0
   -1.8893   -4.3422   -2.8313 H   0  0  0  0  0  0  0  0  0  0  0  0
    0.3651   -2.5242   -1.8207 H   0  0  0  0  0  0  0  0  0  0  0  0
   -0.6759   -3.5529   -0.8358 H   0  0  0  0  0  0  0  0  0  0  0  0
   -1.3477   -3.5019   -5.0805 H   0  0  0  0  0  0  0  0  0  0  0  0
   -0.0556   -2.4875   -4.4296 H   0  0  0  0  0  0  0  0  0  0  0  0
    1.5510   -4.6068   -1.2186 H   0  0  0  0  0  0  0  0  0  0  0  0
    0.2345   -5.5836   -1.8785 H   0  0  0  0  0  0  0  0  0  0  0  0
   -0.1802   -5.5478   -4.3477 H   0  0  0  0  0  0  0  0  0  0  0  0
    0.3275   -4.8733   -6.5643 H   0  0  0  0  0  0  0  0  0  0  0  0
    2.0199   -5.3606   -3.5038 H   0  0  0  0  0  0  0  0  0  0  0  0
    1.9336   -3.7085   -3.4536 H   0  0  0  0  0  0  0  0  0  0  0  0
    2.3883   -5.9068   -6.7184 H   0  0  0  0  0  0  0  0  0  0  0  0
  1  2  2  0
  1  3  1  0
  1 27  1  0
  2  5  1  0
  2 28  1  0
  3  6  2  0
  3 29  1  0
  4  7  1  0
  4  9  2  0
  4 30  1  0
  5  7  2  0
  5  8  1  0
  6  8  1  0
  6 16  1  0
  7 15  1  0
  8 18  2  0
  9 17  1  0
  9 18  1  0
 10 11  1  0
 10 12  1  0
 10 31  1  0
 10 32  1  0
 11 13  1  0
 11 33  1  0
 11 34  1  0
 12 14  1  0
 12 35  1  0
 12 36  1  0
 13 19  1  0
 13 37  1  0
 13 38  1  0
 14 15  1  0
 14 19  1  0
 14 39  1  1
 15 20  1  0
 15 40  1  6
 16 21  1  0
 16 22  1  0
 16 23  1  0
 17 24  1  0
 17 25  1  0
 17 26  1  0
 19 41  1  0
 19 42  1  0
 20 43  1  0
M  CHG  1  19   1
M  END
>  <group_name>  (1) 
RCH

>  <molecule_index>  (1) 
00068

>  <conformer_index>  (1) 
03

>  <method>  (1) 
openff-1.3.0

>  <basis>  (1) 
smirnoff

>  <program>  (1) 
openmm

>  <initial_energy>  (1) 
149.00647221345952 kilocalorie / mole

>  <final_energy>  (1) 
138.52478588862238 kilocalorie / mole

$$$$
