RCH-01195-00
     RDKit          3D

 28 28  0  0  0  0  0  0  0  0999 V2000
   -0.6195   -1.2584   -2.1570 C   0  0  0  0  0  0  0  0  0  0  0  0
    0.0741    0.2429    3.4805 C   0  0  0  0  0  0  0  0  0  0  0  0
    0.9221    0.3639    4.5765 C   0  0  0  0  0  0  0  0  0  0  0  0
    1.2015    2.1487    2.5477 C   0  0  0  0  0  0  0  0  0  0  0  0
    0.2139    1.1486    2.4297 C   0  0  0  0  0  0  0  0  0  0  0  0
    1.8982    1.3769    4.6288 C   0  0  0  0  0  0  0  0  0  0  0  0
   -0.9000    2.3389    0.4460 C   0  0  0  0  0  0  0  0  0  0  0  0
    1.5533    0.0192   -0.2407 C   0  0  0  0  0  0  0  0  0  0  0  0
   -0.7112    1.0236    1.2228 C   0  0  1  0  0  0  0  0  0  0  0  0
    2.8070    1.4571    5.8621 C   0  0  0  0  0  0  0  0  0  0  0  0
   -0.0897   -2.0219   -2.8553 N   0  0  0  0  0  0  0  0  0  0  0  0
    2.0260    2.2601    3.6030 N   0  0  0  0  0  0  0  0  0  0  0  0
   -1.1151   -0.3367   -1.3244 N   0  0  0  0  0  0  0  0  0  0  0  0
   -0.2957   -1.6325    0.8336 O   0  0  0  0  0  0  0  0  0  0  0  0
    3.5038    0.2900    5.9919 F   0  0  0  0  0  0  0  0  0  0  0  0
    3.7036    2.4856    5.7971 F   0  0  0  0  0  0  0  0  0  0  0  0
    2.0448    1.6236    6.9828 F   0  0  0  0  0  0  0  0  0  0  0  0
   -0.1827   -0.3520    0.1184 S   0  0  1  0  0  0  0  0  0  0  0  0
   -0.6702   -0.5522    3.4499 H   0  0  0  0  0  0  0  0  0  0  0  0
    0.8350   -0.3342    5.4050 H   0  0  0  0  0  0  0  0  0  0  0  0
    1.3375    2.8735    1.7519 H   0  0  0  0  0  0  0  0  0  0  0  0
    0.0268    2.6544   -0.0422 H   0  0  0  0  0  0  0  0  0  0  0  0
   -1.6620    2.2123   -0.3307 H   0  0  0  0  0  0  0  0  0  0  0  0
   -1.2365    3.1336    1.1198 H   0  0  0  0  0  0  0  0  0  0  0  0
    2.1173    0.0540    0.6922 H   0  0  0  0  0  0  0  0  0  0  0  0
    1.6218    0.9691   -0.7716 H   0  0  0  0  0  0  0  0  0  0  0  0
    1.9540   -0.7785   -0.8696 H   0  0  0  0  0  0  0  0  0  0  0  0
   -1.6978    0.7272    1.5888 H   0  0  0  0  0  0  0  0  0  0  0  0
  1 11  3  0
  1 13  1  0
  2  3  2  0
  2  5  1  0
  2 19  1  0
  3  6  1  0
  3 20  1  0
  4  5  2  0
  4 12  1  0
  4 21  1  0
  5  9  1  0
  6 10  1  0
  6 12  2  0
  7  9  1  0
  7 22  1  0
  7 23  1  0
  7 24  1  0
 18  8  1  6
  8 25  1  0
  8 26  1  0
  8 27  1  0
  9 18  1  0
  9 28  1  1
 10 15  1  0
 10 16  1  0
 10 17  1  0
 13 18  2  0
 14 18  2  0
M  END
>  <group_name>  (1) 
RCH

>  <molecule_index>  (1) 
01195

>  <conformer_index>  (1) 
00

>  <method>  (1) 
openff-1.3.0

>  <basis>  (1) 
smirnoff

>  <program>  (1) 
openmm

>  <initial_energy>  (1) 
26.61784736880423 kilocalorie / mole

>  <final_energy>  (1) 
7.467946467909376 kilocalorie / mole

$$$$
