RCH-00337-06
     RDKit          3D

 43 45  0  0  0  0  0  0  0  0999 V2000
    1.3052   -0.5200   -6.0723 C   0  0  0  0  0  0  0  0  0  0  0  0
    0.0219   -0.1289   -5.6989 C   0  0  0  0  0  0  0  0  0  0  0  0
    1.4864   -1.4601   -7.0798 C   0  0  0  0  0  0  0  0  0  0  0  0
   -3.4762   -0.9096   -6.6911 C   0  0  0  0  0  0  0  0  0  0  0  0
   -1.1197   -0.6654   -6.3319 C   0  0  0  0  0  0  0  0  0  0  0  0
    0.3788   -2.0335   -7.7331 C   0  0  0  0  0  0  0  0  0  0  0  0
   -2.4454   -0.2893   -5.9820 C   0  0  0  0  0  0  0  0  0  0  0  0
   -0.9270   -1.6389   -7.3605 C   0  0  0  0  0  0  0  0  0  0  0  0
   -3.2300   -1.8643   -7.6871 C   0  0  0  0  0  0  0  0  0  0  0  0
   -1.0654    0.2245   -2.0641 C   0  0  0  0  0  0  0  0  0  0  0  0
   -1.8192    1.0449   -0.9976 C   0  0  0  0  0  0  0  0  0  0  0  0
   -2.0229   -0.6408   -2.9009 C   0  0  0  0  0  0  0  0  0  0  0  0
   -3.3310    1.1059   -1.2472 C   0  0  0  0  0  0  0  0  0  0  0  0
   -3.1684    0.1777   -3.5512 C   0  0  2  0  0  0  0  0  0  0  0  0
   -2.8645    0.7621   -4.9569 C   0  0  1  0  0  0  0  0  0  0  0  0
    0.5909   -3.0689   -8.8305 C   0  0  0  0  0  0  0  0  0  0  0  0
   -4.4224   -2.5043   -8.4070 C   0  0  0  0  0  0  0  0  0  0  0  0
   -1.9650   -2.2091   -7.9995 N   0  0  0  0  0  0  0  0  0  0  0  0
   -3.5548    1.3231   -2.6901 N   0  0  0  0  0  0  0  0  0  0  0  0
   -2.0038    1.9074   -4.8665 O   0  0  0  0  0  0  0  0  0  0  0  0
    1.9186   -3.3028   -9.0374 F   0  0  0  0  0  0  0  0  0  0  0  0
    0.0808   -2.6247  -10.0134 F   0  0  0  0  0  0  0  0  0  0  0  0
    0.0330   -4.2605   -8.4751 F   0  0  0  0  0  0  0  0  0  0  0  0
   -5.2255   -3.1142   -7.4859 F   0  0  0  0  0  0  0  0  0  0  0  0
   -4.0513   -3.4288   -9.3397 F   0  0  0  0  0  0  0  0  0  0  0  0
   -5.1527   -1.5294   -9.0237 F   0  0  0  0  0  0  0  0  0  0  0  0
    2.1738   -0.0925   -5.5758 H   0  0  0  0  0  0  0  0  0  0  0  0
   -0.0356    0.5937   -4.8969 H   0  0  0  0  0  0  0  0  0  0  0  0
    2.5060   -1.7381   -7.3426 H   0  0  0  0  0  0  0  0  0  0  0  0
   -4.5143   -0.6614   -6.4875 H   0  0  0  0  0  0  0  0  0  0  0  0
   -0.3129   -0.4101   -1.5822 H   0  0  0  0  0  0  0  0  0  0  0  0
   -0.5265    0.9118   -2.7231 H   0  0  0  0  0  0  0  0  0  0  0  0
   -1.4080    2.0603   -0.9794 H   0  0  0  0  0  0  0  0  0  0  0  0
   -1.6443    0.6149   -0.0049 H   0  0  0  0  0  0  0  0  0  0  0  0
   -1.4686   -1.2134   -3.6495 H   0  0  0  0  0  0  0  0  0  0  0  0
   -2.4700   -1.3886   -2.2369 H   0  0  0  0  0  0  0  0  0  0  0  0
   -3.7715    1.9085   -0.6399 H   0  0  0  0  0  0  0  0  0  0  0  0
   -3.7919    0.1625   -0.9251 H   0  0  0  0  0  0  0  0  0  0  0  0
   -4.0144   -0.5115   -3.6711 H   0  0  0  0  0  0  0  0  0  0  0  0
   -3.8185    1.1583   -5.3242 H   0  0  0  0  0  0  0  0  0  0  0  0
   -4.5274    1.5828   -2.8645 H   0  0  0  0  0  0  0  0  0  0  0  0
   -2.9613    2.0993   -3.0106 H   0  0  0  0  0  0  0  0  0  0  0  0
   -1.7481    2.1991   -5.7653 H   0  0  0  0  0  0  0  0  0  0  0  0
  1  2  2  0
  1  3  1  0
  1 27  1  0
  2  5  1  0
  2 28  1  0
  3  6  2  0
  3 29  1  0
  4  7  1  0
  4  9  2  0
  4 30  1  0
  5  7  2  0
  5  8  1  0
  6  8  1  0
  6 16  1  0
  7 15  1  0
  8 18  2  0
  9 17  1  0
  9 18  1  0
 10 11  1  0
 10 12  1  0
 10 31  1  0
 10 32  1  0
 11 13  1  0
 11 33  1  0
 11 34  1  0
 12 14  1  0
 12 35  1  0
 12 36  1  0
 13 19  1  0
 13 37  1  0
 13 38  1  0
 14 15  1  0
 14 19  1  0
 14 39  1  6
 15 20  1  0
 15 40  1  6
 16 21  1  0
 16 22  1  0
 16 23  1  0
 17 24  1  0
 17 25  1  0
 17 26  1  0
 19 41  1  0
 19 42  1  0
 20 43  1  0
M  CHG  1  19   1
M  END
>  <group_name>  (1) 
RCH

>  <molecule_index>  (1) 
00337

>  <conformer_index>  (1) 
06

>  <method>  (1) 
openff-1.3.0

>  <basis>  (1) 
smirnoff

>  <program>  (1) 
openmm

>  <initial_energy>  (1) 
157.5161580099689 kilocalorie / mole

>  <final_energy>  (1) 
146.1870568277555 kilocalorie / mole

$$$$
