RCH-01399-09
     RDKit          3D

 44 48  0  0  0  0  0  0  0  0999 V2000
   -2.2865    0.3475    1.2733 C   0  0  0  0  0  0  0  0  0  0  0  0
   -2.0153   -0.3413    2.4624 C   0  0  0  0  0  0  0  0  0  0  0  0
   -0.0409    3.3960    1.4653 C   0  0  0  0  0  0  0  0  0  0  0  0
    1.2217    3.7302    1.9317 C   0  0  0  0  0  0  0  0  0  0  0  0
    0.2431   -0.7566    1.7152 C   0  0  0  0  0  0  0  0  0  0  0  0
    1.8136    0.6012   -2.5386 C   0  0  0  0  0  0  0  0  0  0  0  0
    0.8008    3.7522   -0.7565 C   0  0  0  0  0  0  0  0  0  0  0  0
   -0.0236   -0.0748    0.5199 C   0  0  0  0  0  0  0  0  0  0  0  0
    0.6069    0.5105   -1.7542 C   0  0  0  0  0  0  0  0  0  0  0  0
   -1.2937    0.4957    0.2969 C   0  0  0  0  0  0  0  0  0  0  0  0
   -0.7501   -0.8908    2.6896 C   0  0  0  0  0  0  0  0  0  0  0  0
   -0.2298    3.4031    0.0914 C   0  0  0  0  0  0  0  0  0  0  0  0
    0.9795    0.0739   -0.5235 C   0  0  0  0  0  0  0  0  0  0  0  0
    2.2536    4.0629    1.0325 C   0  0  0  0  0  0  0  0  0  0  0  0
   -1.4081   -1.7443   -2.3760 C   0  0  0  0  0  0  0  0  0  0  0  0
   -0.9601   -1.2534   -3.7512 C   0  0  0  0  0  0  0  0  0  0  0  0
   -0.8181    0.8669   -2.1040 C   0  0  1  0  0  0  0  0  0  0  0  0
   -1.6000   -0.2805   -2.7645 C   0  0  0  0  0  0  0  0  0  0  0  0
    3.6372    4.4041    1.6005 C   0  0  0  0  0  0  0  0  0  0  0  0
    2.0251    4.0759   -0.3074 N   0  0  0  0  0  0  0  0  0  0  0  0
    2.8406    0.2119   -1.8240 N   0  0  0  0  0  0  0  0  0  0  0  0
    2.3497   -0.1181   -0.5957 N   0  0  0  0  0  0  0  0  0  0  0  0
   -1.5346    1.2335   -0.8720 N   0  0  0  0  0  0  0  0  0  0  0  0
   -2.8939    3.1714    0.2960 O   0  0  0  0  0  0  0  0  0  0  0  0
   -1.9717    3.5973   -1.9537 O   0  0  0  0  0  0  0  0  0  0  0  0
   -0.4886   -1.5522    3.8441 F   0  0  0  0  0  0  0  0  0  0  0  0
    4.5280    4.7977    0.6427 F   0  0  0  0  0  0  0  0  0  0  0  0
    3.5273    5.4101    2.5180 F   0  0  0  0  0  0  0  0  0  0  0  0
    4.1475    3.3072    2.2353 F   0  0  0  0  0  0  0  0  0  0  0  0
   -1.7977    2.9277   -0.6554 S   0  0  0  0  0  0  0  0  0  0  0  0
   -3.2740    0.7696    1.1073 H   0  0  0  0  0  0  0  0  0  0  0  0
   -2.7887   -0.4528    3.2168 H   0  0  0  0  0  0  0  0  0  0  0  0
   -0.8488    3.1295    2.1477 H   0  0  0  0  0  0  0  0  0  0  0  0
    1.4190    3.7316    2.9996 H   0  0  0  0  0  0  0  0  0  0  0  0
    1.2168   -1.1983    1.8966 H   0  0  0  0  0  0  0  0  0  0  0  0
    1.8646    0.9373   -3.5701 H   0  0  0  0  0  0  0  0  0  0  0  0
    0.6357    3.7561   -1.8307 H   0  0  0  0  0  0  0  0  0  0  0  0
   -0.6350   -1.9934   -1.6432 H   0  0  0  0  0  0  0  0  0  0  0  0
   -2.3025   -2.3735   -2.3307 H   0  0  0  0  0  0  0  0  0  0  0  0
    0.1145   -1.1785   -3.9417 H   0  0  0  0  0  0  0  0  0  0  0  0
   -1.5588   -1.5632   -4.6137 H   0  0  0  0  0  0  0  0  0  0  0  0
   -0.7926    1.6983   -2.8167 H   0  0  0  0  0  0  0  0  0  0  0  0
   -2.6254    0.0333   -2.9855 H   0  0  0  0  0  0  0  0  0  0  0  0
    2.9262   -0.4355    0.1842 H   0  0  0  0  0  0  0  0  0  0  0  0
  1  2  2  0
  1 10  1  0
  1 31  1  0
  2 11  1  0
  2 32  1  0
  3  4  2  0
  3 12  1  0
  3 33  1  0
  4 14  1  0
  4 34  1  0
  5  8  1  0
  5 11  2  0
  5 35  1  0
  6  9  1  0
  6 21  2  0
  6 36  1  0
  7 12  2  0
  7 20  1  0
  7 37  1  0
  8 10  2  0
  8 13  1  0
  9 13  2  0
  9 17  1  0
 10 23  1  0
 11 26  1  0
 12 30  1  0
 13 22  1  0
 14 19  1  0
 14 20  2  0
 15 16  1  0
 15 18  1  0
 15 38  1  0
 15 39  1  0
 16 18  1  0
 16 40  1  0
 16 41  1  0
 17 18  1  0
 17 23  1  0
 17 42  1  6
 18 43  1  0
 19 27  1  0
 19 28  1  0
 19 29  1  0
 21 22  1  0
 22 44  1  0
 23 30  1  0
 24 30  2  0
 25 30  2  0
M  END
>  <group_name>  (1) 
RCH

>  <molecule_index>  (1) 
01399

>  <conformer_index>  (1) 
09

>  <method>  (1) 
openff-1.3.0

>  <basis>  (1) 
smirnoff

>  <program>  (1) 
openmm

>  <initial_energy>  (1) 
43.39407054476046 kilocalorie / mole

>  <final_energy>  (1) 
27.1376226610055 kilocalorie / mole

$$$$
