RCH-00068-01
     RDKit          3D

 43 45  0  0  0  0  0  0  0  0999 V2000
    5.2501   -3.2251   -5.0325 C   0  0  0  0  0  0  0  0  0  0  0  0
    3.9006   -3.5330   -5.1856 C   0  0  0  0  0  0  0  0  0  0  0  0
    5.7863   -2.0978   -5.6439 C   0  0  0  0  0  0  0  0  0  0  0  0
    0.9490   -2.1059   -6.9427 C   0  0  0  0  0  0  0  0  0  0  0  0
    3.0496   -2.7193   -5.9652 C   0  0  0  0  0  0  0  0  0  0  0  0
    4.9755   -1.2497   -6.4223 C   0  0  0  0  0  0  0  0  0  0  0  0
    1.6685   -3.0003   -6.1481 C   0  0  0  0  0  0  0  0  0  0  0  0
    3.6050   -1.5576   -6.5850 C   0  0  0  0  0  0  0  0  0  0  0  0
    1.5440   -0.9772   -7.5226 C   0  0  0  0  0  0  0  0  0  0  0  0
    0.5192   -3.1963   -1.8126 C   0  0  0  0  0  0  0  0  0  0  0  0
   -0.7141   -4.0954   -1.6158 C   0  0  0  0  0  0  0  0  0  0  0  0
    1.2520   -3.4758   -3.1374 C   0  0  0  0  0  0  0  0  0  0  0  0
   -0.5275   -5.4384   -2.3233 C   0  0  0  0  0  0  0  0  0  0  0  0
    0.2679   -3.9632   -4.2149 C   0  0  1  0  0  0  0  0  0  0  0  0
    0.9023   -4.2045   -5.6088 C   0  0  2  0  0  0  0  0  0  0  0  0
    5.5741   -0.0132   -7.0810 C   0  0  0  0  0  0  0  0  0  0  0  0
    0.6773   -0.0397   -8.3709 C   0  0  0  0  0  0  0  0  0  0  0  0
    2.8546   -0.7260   -7.3310 N   0  0  0  0  0  0  0  0  0  0  0  0
   -0.3435   -5.2469   -3.7850 N   0  0  0  0  0  0  0  0  0  0  0  0
    1.6398   -5.4370   -5.6251 O   0  0  0  0  0  0  0  0  0  0  0  0
    5.4610   -0.0905   -8.4368 F   0  0  0  0  0  0  0  0  0  0  0  0
    4.9773    1.1158   -6.6050 F   0  0  0  0  0  0  0  0  0  0  0  0
    6.9045    0.0985   -6.8023 F   0  0  0  0  0  0  0  0  0  0  0  0
    1.3695    1.0269   -8.8665 F   0  0  0  0  0  0  0  0  0  0  0  0
    0.1454   -0.7394   -9.4156 F   0  0  0  0  0  0  0  0  0  0  0  0
   -0.3540    0.4282   -7.6073 F   0  0  0  0  0  0  0  0  0  0  0  0
    5.8926   -3.8659   -4.4321 H   0  0  0  0  0  0  0  0  0  0  0  0
    3.5584   -4.4198   -4.6681 H   0  0  0  0  0  0  0  0  0  0  0  0
    6.8461   -1.8933   -5.4999 H   0  0  0  0  0  0  0  0  0  0  0  0
   -0.1083   -2.2655   -7.1364 H   0  0  0  0  0  0  0  0  0  0  0  0
    0.2007   -2.1479   -1.7783 H   0  0  0  0  0  0  0  0  0  0  0  0
    1.2216   -3.3409   -0.9837 H   0  0  0  0  0  0  0  0  0  0  0  0
   -1.6039   -3.5961   -2.0152 H   0  0  0  0  0  0  0  0  0  0  0  0
   -0.8875   -4.2537   -0.5454 H   0  0  0  0  0  0  0  0  0  0  0  0
    2.0204   -4.2379   -2.9728 H   0  0  0  0  0  0  0  0  0  0  0  0
    1.7582   -2.5593   -3.4587 H   0  0  0  0  0  0  0  0  0  0  0  0
   -1.3938   -6.0819   -2.1179 H   0  0  0  0  0  0  0  0  0  0  0  0
    0.3497   -5.9387   -1.8912 H   0  0  0  0  0  0  0  0  0  0  0  0
   -0.5007   -3.1875   -4.3254 H   0  0  0  0  0  0  0  0  0  0  0  0
    0.0646   -4.3612   -6.2986 H   0  0  0  0  0  0  0  0  0  0  0  0
   -1.2389   -5.3682   -4.2612 H   0  0  0  0  0  0  0  0  0  0  0  0
    0.2919   -5.9702   -4.1486 H   0  0  0  0  0  0  0  0  0  0  0  0
    2.1248   -5.5199   -6.4716 H   0  0  0  0  0  0  0  0  0  0  0  0
  1  2  2  0
  1  3  1  0
  1 27  1  0
  2  5  1  0
  2 28  1  0
  3  6  2  0
  3 29  1  0
  4  7  1  0
  4  9  2  0
  4 30  1  0
  5  7  2  0
  5  8  1  0
  6  8  1  0
  6 16  1  0
  7 15  1  0
  8 18  2  0
  9 17  1  0
  9 18  1  0
 10 11  1  0
 10 12  1  0
 10 31  1  0
 10 32  1  0
 11 13  1  0
 11 33  1  0
 11 34  1  0
 12 14  1  0
 12 35  1  0
 12 36  1  0
 13 19  1  0
 13 37  1  0
 13 38  1  0
 14 15  1  0
 14 19  1  0
 14 39  1  6
 15 20  1  0
 15 40  1  6
 16 21  1  0
 16 22  1  0
 16 23  1  0
 17 24  1  0
 17 25  1  0
 17 26  1  0
 19 41  1  0
 19 42  1  0
 20 43  1  0
M  CHG  1  19   1
M  END
>  <group_name>  (1) 
RCH

>  <molecule_index>  (1) 
00068

>  <conformer_index>  (1) 
01

>  <method>  (1) 
openff-1.3.0

>  <basis>  (1) 
smirnoff

>  <program>  (1) 
openmm

>  <initial_energy>  (1) 
154.35608579975255 kilocalorie / mole

>  <final_energy>  (1) 
143.42301963066708 kilocalorie / mole

$$$$
