RCH-01399-06
     RDKit          3D

 44 48  0  0  0  0  0  0  0  0999 V2000
    1.9944    0.9816    0.7554 C   0  0  0  0  0  0  0  0  0  0  0  0
    2.2354    0.5855    2.0774 C   0  0  0  0  0  0  0  0  0  0  0  0
   -0.6438    3.0632    1.2758 C   0  0  0  0  0  0  0  0  0  0  0  0
   -0.2122    3.8258    2.3507 C   0  0  0  0  0  0  0  0  0  0  0  0
    0.3956   -0.9768    1.9524 C   0  0  0  0  0  0  0  0  0  0  0  0
   -2.0183   -1.7632   -2.0316 C   0  0  0  0  0  0  0  0  0  0  0  0
    1.0818    4.1128   -0.0289 C   0  0  0  0  0  0  0  0  0  0  0  0
    0.1541   -0.5891    0.6273 C   0  0  0  0  0  0  0  0  0  0  0  0
   -0.8504   -1.0470   -1.5519 C   0  0  0  0  0  0  0  0  0  0  0  0
    0.9337    0.4213    0.0330 C   0  0  0  0  0  0  0  0  0  0  0  0
    1.4312   -0.3856    2.6832 C   0  0  0  0  0  0  0  0  0  0  0  0
    0.0413    3.2137    0.0791 C   0  0  0  0  0  0  0  0  0  0  0  0
   -0.8729   -1.2133   -0.1972 C   0  0  0  0  0  0  0  0  0  0  0  0
    0.8742    4.7111    2.2112 C   0  0  0  0  0  0  0  0  0  0  0  0
   -0.4093   -0.6458   -4.7772 C   0  0  0  0  0  0  0  0  0  0  0  0
   -1.2317    0.5502   -4.2963 C   0  0  0  0  0  0  0  0  0  0  0  0
    0.2773   -0.2480   -2.1922 C   0  0  1  0  0  0  0  0  0  0  0  0
    0.1135    0.2357   -3.6484 C   0  0  0  0  0  0  0  0  0  0  0  0
    1.3238    5.5162    3.4375 C   0  0  0  0  0  0  0  0  0  0  0  0
    1.5102    4.8428    1.0160 N   0  0  0  0  0  0  0  0  0  0  0  0
   -2.6564   -2.3326   -1.0380 N   0  0  0  0  0  0  0  0  0  0  0  0
   -1.9707   -2.0053    0.0886 N   0  0  0  0  0  0  0  0  0  0  0  0
    0.6293    0.8462   -1.2668 N   0  0  0  0  0  0  0  0  0  0  0  0
   -0.0342    3.0501   -2.5774 O   0  0  0  0  0  0  0  0  0  0  0  0
   -1.8121    1.8992   -1.3348 O   0  0  0  0  0  0  0  0  0  0  0  0
    1.6628   -0.7622    3.9649 F   0  0  0  0  0  0  0  0  0  0  0  0
    0.2785    6.2525    3.9173 F   0  0  0  0  0  0  0  0  0  0  0  0
    2.3584    6.3668    3.1686 F   0  0  0  0  0  0  0  0  0  0  0  0
    1.7240    4.6575    4.4215 F   0  0  0  0  0  0  0  0  0  0  0  0
   -0.3859    2.2585   -1.3879 S   0  0  0  0  0  0  0  0  0  0  0  0
    2.6263    1.7324    0.2912 H   0  0  0  0  0  0  0  0  0  0  0  0
    3.0496    1.0304    2.6425 H   0  0  0  0  0  0  0  0  0  0  0  0
   -1.4810    2.3700    1.3654 H   0  0  0  0  0  0  0  0  0  0  0  0
   -0.7132    3.7380    3.3102 H   0  0  0  0  0  0  0  0  0  0  0  0
   -0.2015   -1.7509    2.4221 H   0  0  0  0  0  0  0  0  0  0  0  0
   -2.3352   -1.8376   -3.0659 H   0  0  0  0  0  0  0  0  0  0  0  0
    1.5991    4.2280   -0.9781 H   0  0  0  0  0  0  0  0  0  0  0  0
   -0.7434   -1.6580   -4.5368 H   0  0  0  0  0  0  0  0  0  0  0  0
    0.0794   -0.5541   -5.7525 H   0  0  0  0  0  0  0  0  0  0  0  0
   -2.1435    0.3776   -3.7177 H   0  0  0  0  0  0  0  0  0  0  0  0
   -1.2773    1.4287   -4.9482 H   0  0  0  0  0  0  0  0  0  0  0  0
    1.1411   -0.9219   -2.2222 H   0  0  0  0  0  0  0  0  0  0  0  0
    0.9435    0.8990   -3.9139 H   0  0  0  0  0  0  0  0  0  0  0  0
   -2.2524   -2.2783    1.0302 H   0  0  0  0  0  0  0  0  0  0  0  0
  1  2  2  0
  1 10  1  0
  1 31  1  0
  2 11  1  0
  2 32  1  0
  3  4  2  0
  3 12  1  0
  3 33  1  0
  4 14  1  0
  4 34  1  0
  5  8  1  0
  5 11  2  0
  5 35  1  0
  6  9  1  0
  6 21  2  0
  6 36  1  0
  7 12  2  0
  7 20  1  0
  7 37  1  0
  8 10  2  0
  8 13  1  0
  9 13  2  0
  9 17  1  0
 10 23  1  0
 11 26  1  0
 12 30  1  0
 13 22  1  0
 14 19  1  0
 14 20  2  0
 15 16  1  0
 15 18  1  0
 15 38  1  0
 15 39  1  0
 16 18  1  0
 16 40  1  0
 16 41  1  0
 17 18  1  0
 17 23  1  0
 17 42  1  6
 18 43  1  0
 19 27  1  0
 19 28  1  0
 19 29  1  0
 21 22  1  0
 22 44  1  0
 23 30  1  0
 24 30  2  0
 25 30  2  0
M  END
>  <group_name>  (1) 
RCH

>  <molecule_index>  (1) 
01399

>  <conformer_index>  (1) 
06

>  <method>  (1) 
openff-1.3.0

>  <basis>  (1) 
smirnoff

>  <program>  (1) 
openmm

>  <initial_energy>  (1) 
55.37663440381273 kilocalorie / mole

>  <final_energy>  (1) 
40.634828701551676 kilocalorie / mole

$$$$
