RCH-00337-05
     RDKit          3D

 43 45  0  0  0  0  0  0  0  0999 V2000
    1.6114   -1.4373   -6.2291 C   0  0  0  0  0  0  0  0  0  0  0  0
    0.5622   -0.6321   -5.7924 C   0  0  0  0  0  0  0  0  0  0  0  0
    1.3730   -2.4744   -7.1257 C   0  0  0  0  0  0  0  0  0  0  0  0
   -3.0872   -0.3218   -6.3869 C   0  0  0  0  0  0  0  0  0  0  0  0
   -0.7545   -0.8472   -6.2507 C   0  0  0  0  0  0  0  0  0  0  0  0
    0.0733   -2.7213   -7.6114 C   0  0  0  0  0  0  0  0  0  0  0  0
   -1.8408   -0.0464   -5.8247 C   0  0  0  0  0  0  0  0  0  0  0  0
   -0.9939   -1.8998   -7.1826 C   0  0  0  0  0  0  0  0  0  0  0  0
   -3.2698   -1.3671   -7.3043 C   0  0  0  0  0  0  0  0  0  0  0  0
   -2.8500    2.0420   -1.9331 C   0  0  0  0  0  0  0  0  0  0  0  0
   -3.7182    0.8262   -1.5855 C   0  0  0  0  0  0  0  0  0  0  0  0
   -1.4261    1.5965   -2.2991 C   0  0  0  0  0  0  0  0  0  0  0  0
   -3.6878   -0.2083   -2.7124 C   0  0  0  0  0  0  0  0  0  0  0  0
   -1.4030    0.5124   -3.3950 C   0  0  2  0  0  0  0  0  0  0  0  0
   -1.7526    1.0733   -4.7983 C   0  0  1  0  0  0  0  0  0  0  0  0
   -0.1748   -3.8602   -8.5916 C   0  0  0  0  0  0  0  0  0  0  0  0
   -4.6767   -1.6262   -7.8543 C   0  0  0  0  0  0  0  0  0  0  0  0
   -2.2272   -2.1442   -7.6656 N   0  0  0  0  0  0  0  0  0  0  0  0
   -2.2890   -0.6079   -2.9901 N   0  0  0  0  0  0  0  0  0  0  0  0
   -0.7889    2.0450   -5.2109 O   0  0  0  0  0  0  0  0  0  0  0  0
    0.9790   -4.5312   -8.8705 F   0  0  0  0  0  0  0  0  0  0  0  0
   -1.0362   -4.7667   -8.0491 F   0  0  0  0  0  0  0  0  0  0  0  0
   -0.6533   -3.3805   -9.7735 F   0  0  0  0  0  0  0  0  0  0  0  0
   -4.7367   -2.7093   -8.6815 F   0  0  0  0  0  0  0  0  0  0  0  0
   -5.5235   -1.8371   -6.8025 F   0  0  0  0  0  0  0  0  0  0  0  0
   -5.1090   -0.5241   -8.5326 F   0  0  0  0  0  0  0  0  0  0  0  0
    2.6246   -1.2522   -5.8775 H   0  0  0  0  0  0  0  0  0  0  0  0
    0.8196    0.1726   -5.1116 H   0  0  0  0  0  0  0  0  0  0  0  0
    2.2211   -3.0796   -7.4433 H   0  0  0  0  0  0  0  0  0  0  0  0
   -3.9556    0.2779   -6.1272 H   0  0  0  0  0  0  0  0  0  0  0  0
   -2.8140    2.7286   -1.0793 H   0  0  0  0  0  0  0  0  0  0  0  0
   -3.2967    2.5943   -2.7670 H   0  0  0  0  0  0  0  0  0  0  0  0
   -4.7505    1.1499   -1.4102 H   0  0  0  0  0  0  0  0  0  0  0  0
   -3.3598    0.3725   -0.6548 H   0  0  0  0  0  0  0  0  0  0  0  0
   -0.8393    2.4660   -2.6175 H   0  0  0  0  0  0  0  0  0  0  0  0
   -0.9353    1.2056   -1.4015 H   0  0  0  0  0  0  0  0  0  0  0  0
   -4.1544    0.2233   -3.6071 H   0  0  0  0  0  0  0  0  0  0  0  0
   -4.2960   -1.0764   -2.4219 H   0  0  0  0  0  0  0  0  0  0  0  0
   -0.3731    0.1430   -3.4617 H   0  0  0  0  0  0  0  0  0  0  0  0
   -2.7260    1.5714   -4.7425 H   0  0  0  0  0  0  0  0  0  0  0  0
   -1.8970   -1.0487   -2.1551 H   0  0  0  0  0  0  0  0  0  0  0  0
   -2.2766   -1.3045   -3.7420 H   0  0  0  0  0  0  0  0  0  0  0  0
   -0.9536    2.3320   -6.1294 H   0  0  0  0  0  0  0  0  0  0  0  0
  1  2  2  0
  1  3  1  0
  1 27  1  0
  2  5  1  0
  2 28  1  0
  3  6  2  0
  3 29  1  0
  4  7  1  0
  4  9  2  0
  4 30  1  0
  5  7  2  0
  5  8  1  0
  6  8  1  0
  6 16  1  0
  7 15  1  0
  8 18  2  0
  9 17  1  0
  9 18  1  0
 10 11  1  0
 10 12  1  0
 10 31  1  0
 10 32  1  0
 11 13  1  0
 11 33  1  0
 11 34  1  0
 12 14  1  0
 12 35  1  0
 12 36  1  0
 13 19  1  0
 13 37  1  0
 13 38  1  0
 14 15  1  0
 14 19  1  0
 14 39  1  6
 15 20  1  0
 15 40  1  1
 16 21  1  0
 16 22  1  0
 16 23  1  0
 17 24  1  0
 17 25  1  0
 17 26  1  0
 19 41  1  0
 19 42  1  0
 20 43  1  0
M  CHG  1  19   1
M  END
>  <group_name>  (1) 
RCH

>  <molecule_index>  (1) 
00337

>  <conformer_index>  (1) 
05

>  <method>  (1) 
openff-1.3.0

>  <basis>  (1) 
smirnoff

>  <program>  (1) 
openmm

>  <initial_energy>  (1) 
152.1191471773468 kilocalorie / mole

>  <final_energy>  (1) 
141.24398975749278 kilocalorie / mole

$$$$
