RCH-01195-02
     RDKit          3D

 28 28  0  0  0  0  0  0  0  0999 V2000
   -0.5319   -2.6972    0.7451 C   0  0  0  0  0  0  0  0  0  0  0  0
    1.8571    1.0072    2.6711 C   0  0  0  0  0  0  0  0  0  0  0  0
    2.1463    1.1235    4.0270 C   0  0  0  0  0  0  0  0  0  0  0  0
   -0.3040    1.9279    3.1786 C   0  0  0  0  0  0  0  0  0  0  0  0
    0.6011    1.4253    2.2276 C   0  0  0  0  0  0  0  0  0  0  0  0
    1.2006    1.6502    4.9283 C   0  0  0  0  0  0  0  0  0  0  0  0
    1.0654    2.2731   -0.0766 C   0  0  0  0  0  0  0  0  0  0  0  0
   -0.5374   -0.3597   -1.4369 C   0  0  0  0  0  0  0  0  0  0  0  0
    0.2029    1.3174    0.7628 C   0  0  1  0  0  0  0  0  0  0  0  0
    1.5836    1.7618    6.4095 C   0  0  0  0  0  0  0  0  0  0  0  0
   -0.5295   -3.7325    0.2162 N   0  0  0  0  0  0  0  0  0  0  0  0
   -0.0211    2.0522    4.4873 N   0  0  0  0  0  0  0  0  0  0  0  0
   -0.5633   -1.4547    1.2381 N   0  0  0  0  0  0  0  0  0  0  0  0
    1.6996   -0.8328   -0.0039 O   0  0  0  0  0  0  0  0  0  0  0  0
    0.5860    2.2860    7.1819 F   0  0  0  0  0  0  0  0  0  0  0  0
    2.6839    2.5613    6.5367 F   0  0  0  0  0  0  0  0  0  0  0  0
    1.9005    0.5272    6.8994 F   0  0  0  0  0  0  0  0  0  0  0  0
    0.2963   -0.4237    0.1682 S   0  0  1  0  0  0  0  0  0  0  0  0
    2.6002    0.5922    1.9921 H   0  0  0  0  0  0  0  0  0  0  0  0
    3.1143    0.8011    4.4004 H   0  0  0  0  0  0  0  0  0  0  0  0
   -1.2881    2.2447    2.8460 H   0  0  0  0  0  0  0  0  0  0  0  0
    2.1202    1.9809   -0.0396 H   0  0  0  0  0  0  0  0  0  0  0  0
    0.7434    2.2718   -1.1221 H   0  0  0  0  0  0  0  0  0  0  0  0
    0.9763    3.2956    0.3050 H   0  0  0  0  0  0  0  0  0  0  0  0
    0.0429    0.2576   -2.1232 H   0  0  0  0  0  0  0  0  0  0  0  0
   -0.5980   -1.3747   -1.8353 H   0  0  0  0  0  0  0  0  0  0  0  0
   -1.5436    0.0413   -1.3086 H   0  0  0  0  0  0  0  0  0  0  0  0
   -0.8437    1.6139    0.6619 H   0  0  0  0  0  0  0  0  0  0  0  0
  1 11  3  0
  1 13  1  0
  2  3  2  0
  2  5  1  0
  2 19  1  0
  3  6  1  0
  3 20  1  0
  4  5  2  0
  4 12  1  0
  4 21  1  0
  5  9  1  0
  6 10  1  0
  6 12  2  0
  7  9  1  0
  7 22  1  0
  7 23  1  0
  7 24  1  0
 18  8  1  6
  8 25  1  0
  8 26  1  0
  8 27  1  0
  9 18  1  0
  9 28  1  1
 10 15  1  0
 10 16  1  0
 10 17  1  0
 13 18  2  0
 14 18  2  0
M  END
>  <group_name>  (1) 
RCH

>  <molecule_index>  (1) 
01195

>  <conformer_index>  (1) 
02

>  <method>  (1) 
openff-1.3.0

>  <basis>  (1) 
smirnoff

>  <program>  (1) 
openmm

>  <initial_energy>  (1) 
27.016616259631796 kilocalorie / mole

>  <final_energy>  (1) 
8.132700747181712 kilocalorie / mole

$$$$
