RCH-01399-03
     RDKit          3D

 44 48  0  0  0  0  0  0  0  0999 V2000
   -1.9512   -0.4223    1.4658 C   0  0  0  0  0  0  0  0  0  0  0  0
   -1.5101   -1.1523    2.5769 C   0  0  0  0  0  0  0  0  0  0  0  0
    0.3331    3.8874   -0.5099 C   0  0  0  0  0  0  0  0  0  0  0  0
    1.5392    4.3418    0.0025 C   0  0  0  0  0  0  0  0  0  0  0  0
    0.7625   -1.0222    1.7702 C   0  0  0  0  0  0  0  0  0  0  0  0
    1.8946    1.0547   -2.3312 C   0  0  0  0  0  0  0  0  0  0  0  0
   -0.0866    2.8989    1.6400 C   0  0  0  0  0  0  0  0  0  0  0  0
    0.3273   -0.2984    0.6516 C   0  0  0  0  0  0  0  0  0  0  0  0
    0.7595    0.6278   -1.5543 C   0  0  0  0  0  0  0  0  0  0  0  0
   -1.0392    0.0166    0.4989 C   0  0  0  0  0  0  0  0  0  0  0  0
   -0.1536   -1.4518    2.7348 C   0  0  0  0  0  0  0  0  0  0  0  0
   -0.4717    3.1395    0.3367 C   0  0  0  0  0  0  0  0  0  0  0  0
    1.2487    0.1640   -0.3760 C   0  0  0  0  0  0  0  0  0  0  0  0
    1.9109    4.0495    1.3291 C   0  0  0  0  0  0  0  0  0  0  0  0
   -1.1052   -0.6085   -4.1067 C   0  0  0  0  0  0  0  0  0  0  0  0
   -2.4534   -0.5289   -3.3932 C   0  0  0  0  0  0  0  0  0  0  0  0
   -0.7143    0.7032   -1.8511 C   0  0  1  0  0  0  0  0  0  0  0  0
   -1.1626   -0.5589   -2.5848 C   0  0  0  0  0  0  0  0  0  0  0  0
    3.2653    4.5570    1.8408 C   0  0  0  0  0  0  0  0  0  0  0  0
    1.0841    3.3339    2.1373 N   0  0  0  0  0  0  0  0  0  0  0  0
    2.9994    0.8531   -1.6553 N   0  0  0  0  0  0  0  0  0  0  0  0
    2.6246    0.2989   -0.4660 N   0  0  0  0  0  0  0  0  0  0  0  0
   -1.4606    0.7970   -0.5881 N   0  0  0  0  0  0  0  0  0  0  0  0
   -2.4924    3.0629   -1.4360 O   0  0  0  0  0  0  0  0  0  0  0  0
   -2.9917    2.3715    0.8815 O   0  0  0  0  0  0  0  0  0  0  0  0
    0.2707   -2.1558    3.8133 F   0  0  0  0  0  0  0  0  0  0  0  0
    4.2704    3.9191    1.1716 F   0  0  0  0  0  0  0  0  0  0  0  0
    3.4428    4.3443    3.1787 F   0  0  0  0  0  0  0  0  0  0  0  0
    3.3817    5.8976    1.6060 F   0  0  0  0  0  0  0  0  0  0  0  0
   -2.0133    2.3912   -0.2164 S   0  0  0  0  0  0  0  0  0  0  0  0
   -3.0073   -0.1912    1.3550 H   0  0  0  0  0  0  0  0  0  0  0  0
   -2.2207   -1.4886    3.3264 H   0  0  0  0  0  0  0  0  0  0  0  0
    0.0384    4.0981   -1.5379 H   0  0  0  0  0  0  0  0  0  0  0  0
    2.2100    4.9191   -0.6268 H   0  0  0  0  0  0  0  0  0  0  0  0
    1.8110   -1.2665    1.9000 H   0  0  0  0  0  0  0  0  0  0  0  0
    1.8435    1.4855   -3.3268 H   0  0  0  0  0  0  0  0  0  0  0  0
   -0.7327    2.3165    2.2922 H   0  0  0  0  0  0  0  0  0  0  0  0
   -0.7585    0.2829   -4.6391 H   0  0  0  0  0  0  0  0  0  0  0  0
   -0.8353   -1.5628   -4.5704 H   0  0  0  0  0  0  0  0  0  0  0  0
   -3.0758   -1.4293   -3.3819 H   0  0  0  0  0  0  0  0  0  0  0  0
   -3.0046    0.4165   -3.4393 H   0  0  0  0  0  0  0  0  0  0  0  0
   -0.9018    1.5705   -2.4938 H   0  0  0  0  0  0  0  0  0  0  0  0
   -0.9349   -1.4859   -2.0486 H   0  0  0  0  0  0  0  0  0  0  0  0
    3.2731    0.0492    0.2821 H   0  0  0  0  0  0  0  0  0  0  0  0
  1  2  2  0
  1 10  1  0
  1 31  1  0
  2 11  1  0
  2 32  1  0
  3  4  2  0
  3 12  1  0
  3 33  1  0
  4 14  1  0
  4 34  1  0
  5  8  1  0
  5 11  2  0
  5 35  1  0
  6  9  1  0
  6 21  2  0
  6 36  1  0
  7 12  2  0
  7 20  1  0
  7 37  1  0
  8 10  2  0
  8 13  1  0
  9 13  2  0
  9 17  1  0
 10 23  1  0
 11 26  1  0
 12 30  1  0
 13 22  1  0
 14 19  1  0
 14 20  2  0
 15 16  1  0
 15 18  1  0
 15 38  1  0
 15 39  1  0
 16 18  1  0
 16 40  1  0
 16 41  1  0
 17 18  1  0
 17 23  1  0
 17 42  1  6
 18 43  1  0
 19 27  1  0
 19 28  1  0
 19 29  1  0
 21 22  1  0
 22 44  1  0
 23 30  1  0
 24 30  2  0
 25 30  2  0
M  END
>  <group_name>  (1) 
RCH

>  <molecule_index>  (1) 
01399

>  <conformer_index>  (1) 
03

>  <method>  (1) 
openff-1.3.0

>  <basis>  (1) 
smirnoff

>  <program>  (1) 
openmm

>  <initial_energy>  (1) 
40.918774366136994 kilocalorie / mole

>  <final_energy>  (1) 
24.953526641506638 kilocalorie / mole

$$$$
