RCH-00068-05
     RDKit          3D

 43 45  0  0  0  0  0  0  0  0999 V2000
    5.4608   -3.5191   -5.3489 C   0  0  0  0  0  0  0  0  0  0  0  0
    4.3107   -3.1774   -4.6410 C   0  0  0  0  0  0  0  0  0  0  0  0
    5.6864   -2.9944   -6.6174 C   0  0  0  0  0  0  0  0  0  0  0  0
    1.3401   -1.0063   -5.1292 C   0  0  0  0  0  0  0  0  0  0  0  0
    3.3576   -2.2939   -5.1920 C   0  0  0  0  0  0  0  0  0  0  0  0
    4.7623   -2.1073   -7.2038 C   0  0  0  0  0  0  0  0  0  0  0  0
    2.1772   -1.9356   -4.4989 C   0  0  0  0  0  0  0  0  0  0  0  0
    3.5978   -1.7476   -6.4882 C   0  0  0  0  0  0  0  0  0  0  0  0
    1.6253   -0.4956   -6.4039 C   0  0  0  0  0  0  0  0  0  0  0  0
    0.4526   -6.0953   -3.8738 C   0  0  0  0  0  0  0  0  0  0  0  0
   -0.9689   -5.7092   -3.4263 C   0  0  0  0  0  0  0  0  0  0  0  0
    1.4028   -4.8844   -3.9684 C   0  0  0  0  0  0  0  0  0  0  0  0
   -1.4001   -4.3801   -4.0529 C   0  0  0  0  0  0  0  0  0  0  0  0
    0.8585   -3.6873   -3.1740 C   0  0  1  0  0  0  0  0  0  0  0  0
    1.8148   -2.4710   -3.1142 C   0  0  2  0  0  0  0  0  0  0  0  0
    5.0205   -1.5412   -8.5940 C   0  0  0  0  0  0  0  0  0  0  0  0
    0.6380    0.4898   -7.0382 C   0  0  0  0  0  0  0  0  0  0  0  0
    2.7341   -0.8890   -7.0623 N   0  0  0  0  0  0  0  0  0  0  0  0
   -0.4515   -3.2821   -3.7338 N   0  0  0  0  0  0  0  0  0  0  0  0
    1.1314   -1.4528   -2.3679 O   0  0  0  0  0  0  0  0  0  0  0  0
    5.1313   -0.1841   -8.5454 F   0  0  0  0  0  0  0  0  0  0  0  0
    6.1888   -2.0175   -9.1115 F   0  0  0  0  0  0  0  0  0  0  0  0
    4.0285   -1.9183   -9.4494 F   0  0  0  0  0  0  0  0  0  0  0  0
    0.5743    1.6202   -6.2767 F   0  0  0  0  0  0  0  0  0  0  0  0
   -0.6031   -0.0834   -7.0493 F   0  0  0  0  0  0  0  0  0  0  0  0
    0.9677    0.8319   -8.3170 F   0  0  0  0  0  0  0  0  0  0  0  0
    6.1920   -4.1963   -4.9116 H   0  0  0  0  0  0  0  0  0  0  0  0
    4.2073   -3.6208   -3.6575 H   0  0  0  0  0  0  0  0  0  0  0  0
    6.5980   -3.2873   -7.1365 H   0  0  0  0  0  0  0  0  0  0  0  0
    0.4431   -0.6379   -4.6394 H   0  0  0  0  0  0  0  0  0  0  0  0
    0.8562   -6.8290   -3.1665 H   0  0  0  0  0  0  0  0  0  0  0  0
    0.4102   -6.5896   -4.8512 H   0  0  0  0  0  0  0  0  0  0  0  0
   -1.6731   -6.5014   -3.7042 H   0  0  0  0  0  0  0  0  0  0  0  0
   -1.0012   -5.6218   -2.3345 H   0  0  0  0  0  0  0  0  0  0  0  0
    2.3878   -5.1748   -3.5893 H   0  0  0  0  0  0  0  0  0  0  0  0
    1.5269   -4.6048   -5.0205 H   0  0  0  0  0  0  0  0  0  0  0  0
   -1.4651   -4.5186   -5.1405 H   0  0  0  0  0  0  0  0  0  0  0  0
   -2.4126   -4.1320   -3.7061 H   0  0  0  0  0  0  0  0  0  0  0  0
    0.7170   -4.0206   -2.1378 H   0  0  0  0  0  0  0  0  0  0  0  0
    2.7160   -2.7486   -2.5602 H   0  0  0  0  0  0  0  0  0  0  0  0
   -0.2651   -2.7401   -4.5791 H   0  0  0  0  0  0  0  0  0  0  0  0
   -0.8623   -2.6334   -3.0542 H   0  0  0  0  0  0  0  0  0  0  0  0
    1.7172   -0.6827   -2.2248 H   0  0  0  0  0  0  0  0  0  0  0  0
  1  2  2  0
  1  3  1  0
  1 27  1  0
  2  5  1  0
  2 28  1  0
  3  6  2  0
  3 29  1  0
  4  7  1  0
  4  9  2  0
  4 30  1  0
  5  7  2  0
  5  8  1  0
  6  8  1  0
  6 16  1  0
  7 15  1  0
  8 18  2  0
  9 17  1  0
  9 18  1  0
 10 11  1  0
 10 12  1  0
 10 31  1  0
 10 32  1  0
 11 13  1  0
 11 33  1  0
 11 34  1  0
 12 14  1  0
 12 35  1  0
 12 36  1  0
 13 19  1  0
 13 37  1  0
 13 38  1  0
 14 15  1  0
 14 19  1  0
 14 39  1  1
 15 20  1  0
 15 40  1  1
 16 21  1  0
 16 22  1  0
 16 23  1  0
 17 24  1  0
 17 25  1  0
 17 26  1  0
 19 41  1  0
 19 42  1  0
 20 43  1  0
M  CHG  1  19   1
M  END
>  <group_name>  (1) 
RCH

>  <molecule_index>  (1) 
00068

>  <conformer_index>  (1) 
05

>  <method>  (1) 
openff-1.3.0

>  <basis>  (1) 
smirnoff

>  <program>  (1) 
openmm

>  <initial_energy>  (1) 
152.03567874621223 kilocalorie / mole

>  <final_energy>  (1) 
141.1277312051567 kilocalorie / mole

$$$$
