RCH-01399-08
     RDKit          3D

 44 48  0  0  0  0  0  0  0  0999 V2000
    0.5318   -1.9243    1.0023 C   0  0  0  0  0  0  0  0  0  0  0  0
    0.1367   -2.2642    2.3027 C   0  0  0  0  0  0  0  0  0  0  0  0
    1.7897    1.8977    1.2450 C   0  0  0  0  0  0  0  0  0  0  0  0
    1.5721    3.1550    1.7876 C   0  0  0  0  0  0  0  0  0  0  0  0
   -1.3431   -0.3553    2.3630 C   0  0  0  0  0  0  0  0  0  0  0  0
   -1.9120    2.5314   -1.3502 C   0  0  0  0  0  0  0  0  0  0  0  0
    1.7306    2.9364   -0.9195 C   0  0  0  0  0  0  0  0  0  0  0  0
   -0.9583   -0.0129    1.0597 C   0  0  0  0  0  0  0  0  0  0  0  0
   -1.3271    1.2659   -0.9730 C   0  0  0  0  0  0  0  0  0  0  0  0
   -0.0036   -0.7950    0.3724 C   0  0  0  0  0  0  0  0  0  0  0  0
   -0.7977   -1.4809    2.9878 C   0  0  0  0  0  0  0  0  0  0  0  0
    1.8441    1.8054   -0.1377 C   0  0  0  0  0  0  0  0  0  0  0  0
   -1.5005    1.1519    0.3699 C   0  0  0  0  0  0  0  0  0  0  0  0
    1.4235    4.2797    0.9531 C   0  0  0  0  0  0  0  0  0  0  0  0
    0.0832   -0.3461   -4.2390 C   0  0  0  0  0  0  0  0  0  0  0  0
   -1.2003    0.4766   -4.3168 C   0  0  0  0  0  0  0  0  0  0  0  0
   -0.6390    0.1802   -1.7607 C   0  0  1  0  0  0  0  0  0  0  0  0
   -0.2351    0.6743   -3.1528 C   0  0  0  0  0  0  0  0  0  0  0  0
    1.1479    5.6404    1.6053 C   0  0  0  0  0  0  0  0  0  0  0  0
    1.5177    4.1560   -0.3971 N   0  0  0  0  0  0  0  0  0  0  0  0
   -2.4182    3.1224   -0.2950 N   0  0  0  0  0  0  0  0  0  0  0  0
   -2.1830    2.2927    0.7598 N   0  0  0  0  0  0  0  0  0  0  0  0
    0.4157   -0.4067   -0.9095 N   0  0  0  0  0  0  0  0  0  0  0  0
    2.9416   -0.6241   -0.1798 O   0  0  0  0  0  0  0  0  0  0  0  0
    2.5233    0.4180   -2.3517 O   0  0  0  0  0  0  0  0  0  0  0  0
   -1.1736   -1.8099    4.2484 F   0  0  0  0  0  0  0  0  0  0  0  0
    0.9853    6.6485    0.6979 F   0  0  0  0  0  0  0  0  0  0  0  0
    2.1828    5.9714    2.4327 F   0  0  0  0  0  0  0  0  0  0  0  0
    0.0135    5.5602    2.3633 F   0  0  0  0  0  0  0  0  0  0  0  0
    2.0388    0.2228   -0.9770 S   0  0  0  0  0  0  0  0  0  0  0  0
    1.2650   -2.5336    0.4806 H   0  0  0  0  0  0  0  0  0  0  0  0
    0.5586   -3.1390    2.7891 H   0  0  0  0  0  0  0  0  0  0  0  0
    1.9004    1.0156    1.8762 H   0  0  0  0  0  0  0  0  0  0  0  0
    1.5109    3.2747    2.8650 H   0  0  0  0  0  0  0  0  0  0  0  0
   -2.0751    0.2385    2.8996 H   0  0  0  0  0  0  0  0  0  0  0  0
   -1.9342    2.9352   -2.3582 H   0  0  0  0  0  0  0  0  0  0  0  0
    1.8023    2.8576   -2.0003 H   0  0  0  0  0  0  0  0  0  0  0  0
    0.8902   -0.0997   -4.9368 H   0  0  0  0  0  0  0  0  0  0  0  0
    0.0009   -1.4074   -3.9826 H   0  0  0  0  0  0  0  0  0  0  0  0
   -2.1473   -0.0375   -4.1227 H   0  0  0  0  0  0  0  0  0  0  0  0
   -1.2471    1.2656   -5.0744 H   0  0  0  0  0  0  0  0  0  0  0  0
   -1.3764   -0.6147   -1.9214 H   0  0  0  0  0  0  0  0  0  0  0  0
    0.3371    1.6050   -3.1676 H   0  0  0  0  0  0  0  0  0  0  0  0
   -2.4587    2.4974    1.7207 H   0  0  0  0  0  0  0  0  0  0  0  0
  1  2  2  0
  1 10  1  0
  1 31  1  0
  2 11  1  0
  2 32  1  0
  3  4  2  0
  3 12  1  0
  3 33  1  0
  4 14  1  0
  4 34  1  0
  5  8  1  0
  5 11  2  0
  5 35  1  0
  6  9  1  0
  6 21  2  0
  6 36  1  0
  7 12  2  0
  7 20  1  0
  7 37  1  0
  8 10  2  0
  8 13  1  0
  9 13  2  0
  9 17  1  0
 10 23  1  0
 11 26  1  0
 12 30  1  0
 13 22  1  0
 14 19  1  0
 14 20  2  0
 15 16  1  0
 15 18  1  0
 15 38  1  0
 15 39  1  0
 16 18  1  0
 16 40  1  0
 16 41  1  0
 17 18  1  0
 17 23  1  0
 17 42  1  6
 18 43  1  0
 19 27  1  0
 19 28  1  0
 19 29  1  0
 21 22  1  0
 22 44  1  0
 23 30  1  0
 24 30  2  0
 25 30  2  0
M  END
>  <group_name>  (1) 
RCH

>  <molecule_index>  (1) 
01399

>  <conformer_index>  (1) 
08

>  <method>  (1) 
openff-1.3.0

>  <basis>  (1) 
smirnoff

>  <program>  (1) 
openmm

>  <initial_energy>  (1) 
49.665651891305004 kilocalorie / mole

>  <final_energy>  (1) 
31.598137512494684 kilocalorie / mole

$$$$
