RCH-01399-01
     RDKit          3D

 44 48  0  0  0  0  0  0  0  0999 V2000
    0.3882   -0.3771    1.9127 C   0  0  0  0  0  0  0  0  0  0  0  0
    0.1383   -1.4996    2.7121 C   0  0  0  0  0  0  0  0  0  0  0  0
    0.8018    3.6835    1.5343 C   0  0  0  0  0  0  0  0  0  0  0  0
    0.1172    4.8902    1.5478 C   0  0  0  0  0  0  0  0  0  0  0  0
    0.1988   -2.9107    0.7587 C   0  0  0  0  0  0  0  0  0  0  0  0
    0.7552   -1.2510   -3.6271 C   0  0  0  0  0  0  0  0  0  0  0  0
    1.0482    3.9712   -0.8380 C   0  0  0  0  0  0  0  0  0  0  0  0
    0.4454   -1.7912   -0.0494 C   0  0  0  0  0  0  0  0  0  0  0  0
    0.5844   -0.8017   -2.2681 C   0  0  0  0  0  0  0  0  0  0  0  0
    0.5613   -0.5074    0.5260 C   0  0  0  0  0  0  0  0  0  0  0  0
    0.0472   -2.7698    2.1396 C   0  0  0  0  0  0  0  0  0  0  0  0
    1.2547    3.2268    0.3053 C   0  0  0  0  0  0  0  0  0  0  0  0
    0.5770   -1.9125   -1.4917 C   0  0  0  0  0  0  0  0  0  0  0  0
   -0.0961    5.6081    0.3549 C   0  0  0  0  0  0  0  0  0  0  0  0
   -2.1838    0.5241   -1.2690 C   0  0  0  0  0  0  0  0  0  0  0  0
   -1.7535    1.9627   -1.0017 C   0  0  0  0  0  0  0  0  0  0  0  0
    0.4651    0.5930   -1.7188 C   0  0  1  0  0  0  0  0  0  0  0  0
   -0.9650    1.0991   -1.9871 C   0  0  0  0  0  0  0  0  0  0  0  0
   -0.8723    6.9299    0.4241 C   0  0  0  0  0  0  0  0  0  0  0  0
    0.3761    5.1348   -0.8292 N   0  0  0  0  0  0  0  0  0  0  0  0
    0.8213   -2.5600   -3.6606 N   0  0  0  0  0  0  0  0  0  0  0  0
    0.7127   -2.9782   -2.3671 N   0  0  0  0  0  0  0  0  0  0  0  0
    0.8249    0.6111   -0.2870 N   0  0  0  0  0  0  0  0  0  0  0  0
    3.0997    1.7681   -0.9765 O   0  0  0  0  0  0  0  0  0  0  0  0
    2.7418    1.3154    1.4239 O   0  0  0  0  0  0  0  0  0  0  0  0
   -0.1952   -3.8553    2.9155 F   0  0  0  0  0  0  0  0  0  0  0  0
   -1.0090    7.5337   -0.7937 F   0  0  0  0  0  0  0  0  0  0  0  0
   -0.2325    7.7971    1.2629 F   0  0  0  0  0  0  0  0  0  0  0  0
   -2.1211    6.6988    0.9269 F   0  0  0  0  0  0  0  0  0  0  0  0
    2.1357    1.6668    0.1296 S   0  0  0  0  0  0  0  0  0  0  0  0
    0.4515    0.5982    2.3819 H   0  0  0  0  0  0  0  0  0  0  0  0
    0.0168   -1.3917    3.7857 H   0  0  0  0  0  0  0  0  0  0  0  0
    0.9789    3.1210    2.4513 H   0  0  0  0  0  0  0  0  0  0  0  0
   -0.2587    5.2878    2.4860 H   0  0  0  0  0  0  0  0  0  0  0  0
    0.1121   -3.9001    0.3240 H   0  0  0  0  0  0  0  0  0  0  0  0
    0.8142   -0.6026   -4.4963 H   0  0  0  0  0  0  0  0  0  0  0  0
    1.4232    3.6091   -1.7916 H   0  0  0  0  0  0  0  0  0  0  0  0
   -3.0914    0.3707   -1.8611 H   0  0  0  0  0  0  0  0  0  0  0  0
   -2.0195   -0.2169   -0.4811 H   0  0  0  0  0  0  0  0  0  0  0  0
   -2.3774    2.7608   -1.4166 H   0  0  0  0  0  0  0  0  0  0  0  0
   -1.3227    2.1814   -0.0210 H   0  0  0  0  0  0  0  0  0  0  0  0
    1.1504    1.2279   -2.2904 H   0  0  0  0  0  0  0  0  0  0  0  0
   -1.0941    1.3335   -3.0483 H   0  0  0  0  0  0  0  0  0  0  0  0
    0.7628   -3.9540   -2.0739 H   0  0  0  0  0  0  0  0  0  0  0  0
  1  2  2  0
  1 10  1  0
  1 31  1  0
  2 11  1  0
  2 32  1  0
  3  4  2  0
  3 12  1  0
  3 33  1  0
  4 14  1  0
  4 34  1  0
  5  8  1  0
  5 11  2  0
  5 35  1  0
  6  9  1  0
  6 21  2  0
  6 36  1  0
  7 12  2  0
  7 20  1  0
  7 37  1  0
  8 10  2  0
  8 13  1  0
  9 13  2  0
  9 17  1  0
 10 23  1  0
 11 26  1  0
 12 30  1  0
 13 22  1  0
 14 19  1  0
 14 20  2  0
 15 16  1  0
 15 18  1  0
 15 38  1  0
 15 39  1  0
 16 18  1  0
 16 40  1  0
 16 41  1  0
 17 18  1  0
 17 23  1  0
 17 42  1  6
 18 43  1  0
 19 27  1  0
 19 28  1  0
 19 29  1  0
 21 22  1  0
 22 44  1  0
 23 30  1  0
 24 30  2  0
 25 30  2  0
M  END
>  <group_name>  (1) 
RCH

>  <molecule_index>  (1) 
01399

>  <conformer_index>  (1) 
01

>  <method>  (1) 
openff-1.3.0

>  <basis>  (1) 
smirnoff

>  <program>  (1) 
openmm

>  <initial_energy>  (1) 
47.9375702362241 kilocalorie / mole

>  <final_energy>  (1) 
31.912467401589904 kilocalorie / mole

$$$$
