RCH-01399-04
     RDKit          3D

 44 48  0  0  0  0  0  0  0  0999 V2000
    0.7327    0.0769    1.8939 C   0  0  0  0  0  0  0  0  0  0  0  0
    0.2104   -0.6177    2.9918 C   0  0  0  0  0  0  0  0  0  0  0  0
    0.4101    3.1554    0.4971 C   0  0  0  0  0  0  0  0  0  0  0  0
    0.0597    4.4472    0.8609 C   0  0  0  0  0  0  0  0  0  0  0  0
   -0.8433   -2.1893    1.5059 C   0  0  0  0  0  0  0  0  0  0  0  0
   -0.5108   -2.0067   -3.1917 C   0  0  0  0  0  0  0  0  0  0  0  0
    2.6046    4.0036    0.0067 C   0  0  0  0  0  0  0  0  0  0  0  0
   -0.3263   -1.5008    0.3982 C   0  0  0  0  0  0  0  0  0  0  0  0
   -0.2215   -1.2170   -2.0192 C   0  0  0  0  0  0  0  0  0  0  0  0
    0.4732   -0.3482    0.5751 C   0  0  0  0  0  0  0  0  0  0  0  0
   -0.5804   -1.7504    2.8032 C   0  0  0  0  0  0  0  0  0  0  0  0
    1.7150    2.9491    0.0619 C   0  0  0  0  0  0  0  0  0  0  0  0
   -0.5770   -1.9711   -0.9525 C   0  0  0  0  0  0  0  0  0  0  0  0
    0.9975    5.4946    0.7878 C   0  0  0  0  0  0  0  0  0  0  0  0
   -1.7745    1.1689   -3.0986 C   0  0  0  0  0  0  0  0  0  0  0  0
   -1.9572    1.3313   -1.5918 C   0  0  0  0  0  0  0  0  0  0  0  0
    0.4256    0.1388   -1.9060 C   0  0  1  0  0  0  0  0  0  0  0  0
   -0.5530    1.2958   -2.1896 C   0  0  0  0  0  0  0  0  0  0  0  0
    0.5543    6.9044    1.2013 C   0  0  0  0  0  0  0  0  0  0  0  0
    2.2645    5.2558    0.3593 N   0  0  0  0  0  0  0  0  0  0  0  0
   -1.0513   -3.1482   -2.8419 N   0  0  0  0  0  0  0  0  0  0  0  0
   -1.1014   -3.1408   -1.4798 N   0  0  0  0  0  0  0  0  0  0  0  0
    0.9829    0.3338   -0.5543 N   0  0  0  0  0  0  0  0  0  0  0  0
    3.3302    0.8874    0.5601 O   0  0  0  0  0  0  0  0  0  0  0  0
    3.0203    1.5117   -1.7770 O   0  0  0  0  0  0  0  0  0  0  0  0
   -1.0863   -2.4197    3.8686 F   0  0  0  0  0  0  0  0  0  0  0  0
    1.5477    7.8347    1.0850 F   0  0  0  0  0  0  0  0  0  0  0  0
   -0.4956    7.3005    0.4225 F   0  0  0  0  0  0  0  0  0  0  0  0
    0.1325    6.8890    2.5003 F   0  0  0  0  0  0  0  0  0  0  0  0
    2.3821    1.3539   -0.4615 S   0  0  0  0  0  0  0  0  0  0  0  0
    1.3451    0.9466    2.1042 H   0  0  0  0  0  0  0  0  0  0  0  0
    0.4229   -0.2824    4.0029 H   0  0  0  0  0  0  0  0  0  0  0  0
   -0.3216    2.3514    0.5553 H   0  0  0  0  0  0  0  0  0  0  0  0
   -0.9485    4.6569    1.2062 H   0  0  0  0  0  0  0  0  0  0  0  0
   -1.4561   -3.0738    1.3732 H   0  0  0  0  0  0  0  0  0  0  0  0
   -0.3179   -1.6977   -4.2150 H   0  0  0  0  0  0  0  0  0  0  0  0
    3.6220    3.8263   -0.3340 H   0  0  0  0  0  0  0  0  0  0  0  0
   -2.0187    0.1984   -3.5386 H   0  0  0  0  0  0  0  0  0  0  0  0
   -2.0239    2.0270   -3.7309 H   0  0  0  0  0  0  0  0  0  0  0  0
   -2.2954    0.4612   -1.0197 H   0  0  0  0  0  0  0  0  0  0  0  0
   -2.3337    2.2953   -1.2363 H   0  0  0  0  0  0  0  0  0  0  0  0
    1.2234    0.1677   -2.6570 H   0  0  0  0  0  0  0  0  0  0  0  0
   -0.0187    2.2487   -2.2534 H   0  0  0  0  0  0  0  0  0  0  0  0
   -1.4302   -3.9241   -0.9147 H   0  0  0  0  0  0  0  0  0  0  0  0
  1  2  2  0
  1 10  1  0
  1 31  1  0
  2 11  1  0
  2 32  1  0
  3  4  2  0
  3 12  1  0
  3 33  1  0
  4 14  1  0
  4 34  1  0
  5  8  1  0
  5 11  2  0
  5 35  1  0
  6  9  1  0
  6 21  2  0
  6 36  1  0
  7 12  2  0
  7 20  1  0
  7 37  1  0
  8 10  2  0
  8 13  1  0
  9 13  2  0
  9 17  1  0
 10 23  1  0
 11 26  1  0
 12 30  1  0
 13 22  1  0
 14 19  1  0
 14 20  2  0
 15 16  1  0
 15 18  1  0
 15 38  1  0
 15 39  1  0
 16 18  1  0
 16 40  1  0
 16 41  1  0
 17 18  1  0
 17 23  1  0
 17 42  1  6
 18 43  1  0
 19 27  1  0
 19 28  1  0
 19 29  1  0
 21 22  1  0
 22 44  1  0
 23 30  1  0
 24 30  2  0
 25 30  2  0
M  END
>  <group_name>  (1) 
RCH

>  <molecule_index>  (1) 
01399

>  <conformer_index>  (1) 
04

>  <method>  (1) 
openff-1.3.0

>  <basis>  (1) 
smirnoff

>  <program>  (1) 
openmm

>  <initial_energy>  (1) 
46.76586062150847 kilocalorie / mole

>  <final_energy>  (1) 
31.40539572637208 kilocalorie / mole

$$$$
