RCH-00068-07
     RDKit          3D

 43 45  0  0  0  0  0  0  0  0999 V2000
    5.3194   -3.5894   -5.6066 C   0  0  0  0  0  0  0  0  0  0  0  0
    3.9394   -3.7663   -5.6711 C   0  0  0  0  0  0  0  0  0  0  0  0
    5.8813   -2.3490   -5.8933 C   0  0  0  0  0  0  0  0  0  0  0  0
    0.9505   -1.7372   -6.5184 C   0  0  0  0  0  0  0  0  0  0  0  0
    3.0891   -2.6999   -6.0312 C   0  0  0  0  0  0  0  0  0  0  0  0
    5.0681   -1.2579   -6.2600 C   0  0  0  0  0  0  0  0  0  0  0  0
    1.6842   -2.8494   -6.1050 C   0  0  0  0  0  0  0  0  0  0  0  0
    3.6680   -1.4340   -6.3403 C   0  0  0  0  0  0  0  0  0  0  0  0
    1.5692   -0.5139   -6.8186 C   0  0  0  0  0  0  0  0  0  0  0  0
   -0.0756   -5.7800   -2.3901 C   0  0  0  0  0  0  0  0  0  0  0  0
   -0.6696   -4.4838   -1.7983 C   0  0  0  0  0  0  0  0  0  0  0  0
    0.1449   -5.6643   -3.9044 C   0  0  0  0  0  0  0  0  0  0  0  0
   -0.6351   -3.3054   -2.7813 C   0  0  0  0  0  0  0  0  0  0  0  0
    1.0307   -4.4454   -4.2493 C   0  0  1  0  0  0  0  0  0  0  0  0
    0.9222   -4.1195   -5.7586 C   0  0  2  0  0  0  0  0  0  0  0  0
    5.6950    0.0949   -6.5701 C   0  0  0  0  0  0  0  0  0  0  0  0
    0.6939    0.6703   -7.2438 C   0  0  0  0  0  0  0  0  0  0  0  0
    2.9076   -0.3832   -6.7033 N   0  0  0  0  0  0  0  0  0  0  0  0
    0.7011   -3.2592   -3.4116 N   0  0  0  0  0  0  0  0  0  0  0  0
    1.3945   -5.2143   -6.5469 O   0  0  0  0  0  0  0  0  0  0  0  0
    7.0506    0.0545   -6.4280 F   0  0  0  0  0  0  0  0  0  0  0  0
    5.2355    1.0359   -5.6975 F   0  0  0  0  0  0  0  0  0  0  0  0
    5.4392    0.4586   -7.8577 F   0  0  0  0  0  0  0  0  0  0  0  0
    1.4064    1.8153   -7.4497 F   0  0  0  0  0  0  0  0  0  0  0  0
    0.0245    0.3516   -8.3893 F   0  0  0  0  0  0  0  0  0  0  0  0
   -0.2281    0.9043   -6.2628 F   0  0  0  0  0  0  0  0  0  0  0  0
    5.9651   -4.4240   -5.3404 H   0  0  0  0  0  0  0  0  0  0  0  0
    3.5670   -4.7627   -5.4569 H   0  0  0  0  0  0  0  0  0  0  0  0
    6.9646   -2.2531   -5.8328 H   0  0  0  0  0  0  0  0  0  0  0  0
   -0.1299   -1.7955   -6.6277 H   0  0  0  0  0  0  0  0  0  0  0  0
   -0.7378   -6.6265   -2.1736 H   0  0  0  0  0  0  0  0  0  0  0  0
    0.8836   -5.9954   -1.9057 H   0  0  0  0  0  0  0  0  0  0  0  0
   -0.1174   -4.2235   -0.8884 H   0  0  0  0  0  0  0  0  0  0  0  0
   -1.7085   -4.6587   -1.4963 H   0  0  0  0  0  0  0  0  0  0  0  0
   -0.8293   -5.5787   -4.3986 H   0  0  0  0  0  0  0  0  0  0  0  0
    0.6121   -6.5788   -4.2877 H   0  0  0  0  0  0  0  0  0  0  0  0
   -0.8663   -2.3734   -2.2469 H   0  0  0  0  0  0  0  0  0  0  0  0
   -1.4152   -3.4460   -3.5413 H   0  0  0  0  0  0  0  0  0  0  0  0
    2.0709   -4.7297   -4.0526 H   0  0  0  0  0  0  0  0  0  0  0  0
   -0.1366   -3.9659   -5.9972 H   0  0  0  0  0  0  0  0  0  0  0  0
    0.7931   -2.4197   -3.9911 H   0  0  0  0  0  0  0  0  0  0  0  0
    1.4036   -3.1888   -2.6720 H   0  0  0  0  0  0  0  0  0  0  0  0
    1.4042   -4.9838   -7.4956 H   0  0  0  0  0  0  0  0  0  0  0  0
  1  2  2  0
  1  3  1  0
  1 27  1  0
  2  5  1  0
  2 28  1  0
  3  6  2  0
  3 29  1  0
  4  7  1  0
  4  9  2  0
  4 30  1  0
  5  7  2  0
  5  8  1  0
  6  8  1  0
  6 16  1  0
  7 15  1  0
  8 18  2  0
  9 17  1  0
  9 18  1  0
 10 11  1  0
 10 12  1  0
 10 31  1  0
 10 32  1  0
 11 13  1  0
 11 33  1  0
 11 34  1  0
 12 14  1  0
 12 35  1  0
 12 36  1  0
 13 19  1  0
 13 37  1  0
 13 38  1  0
 14 15  1  0
 14 19  1  0
 14 39  1  6
 15 20  1  0
 15 40  1  6
 16 21  1  0
 16 22  1  0
 16 23  1  0
 17 24  1  0
 17 25  1  0
 17 26  1  0
 19 41  1  0
 19 42  1  0
 20 43  1  0
M  CHG  1  19   1
M  END
>  <group_name>  (1) 
RCH

>  <molecule_index>  (1) 
00068

>  <conformer_index>  (1) 
07

>  <method>  (1) 
openff-1.3.0

>  <basis>  (1) 
smirnoff

>  <program>  (1) 
openmm

>  <initial_energy>  (1) 
158.8458198941914 kilocalorie / mole

>  <final_energy>  (1) 
147.20934542602123 kilocalorie / mole

$$$$
