RCH-00786-00
     RDKit          3D

 43 45  0  0  0  0  0  0  0  0999 V2000
   -1.8296   -1.8458   -7.8356 C   0  0  0  0  0  0  0  0  0  0  0  0
   -2.7801   -1.4412   -6.9023 C   0  0  0  0  0  0  0  0  0  0  0  0
   -0.8806   -0.9454   -8.3056 C   0  0  0  0  0  0  0  0  0  0  0  0
   -3.7200    1.6857   -5.1280 C   0  0  0  0  0  0  0  0  0  0  0  0
   -2.8083   -0.1180   -6.4135 C   0  0  0  0  0  0  0  0  0  0  0  0
   -0.8724    0.3888   -7.8547 C   0  0  0  0  0  0  0  0  0  0  0  0
   -3.7583    0.3265   -5.4554 C   0  0  0  0  0  0  0  0  0  0  0  0
   -1.8442    0.8091   -6.9175 C   0  0  0  0  0  0  0  0  0  0  0  0
   -2.7577    2.5557   -5.6614 C   0  0  0  0  0  0  0  0  0  0  0  0
   -3.2261   -3.4019   -2.6196 C   0  0  0  0  0  0  0  0  0  0  0  0
   -3.1793   -2.5404   -1.3462 C   0  0  0  0  0  0  0  0  0  0  0  0
   -3.5052   -2.5721   -3.8862 C   0  0  0  0  0  0  0  0  0  0  0  0
   -2.6645   -1.1356   -1.6626 C   0  0  0  0  0  0  0  0  0  0  0  0
   -4.3320   -1.3192   -3.5507 C   0  0  2  0  0  0  0  0  0  0  0  0
   -4.8413   -0.5181   -4.7840 C   0  0  2  0  0  0  0  0  0  0  0  0
    0.1716    1.3668   -8.3781 C   0  0  0  0  0  0  0  0  0  0  0  0
   -2.7673    4.0229   -5.2201 C   0  0  0  0  0  0  0  0  0  0  0  0
   -1.8274    2.0957   -6.5201 N   0  0  0  0  0  0  0  0  0  0  0  0
   -3.5435   -0.4425   -2.6412 N   0  0  0  0  0  0  0  0  0  0  0  0
   -5.5423   -1.3534   -5.7048 O   0  0  0  0  0  0  0  0  0  0  0  0
    1.0195    0.7613   -9.2580 F   0  0  0  0  0  0  0  0  0  0  0  0
    0.9387    1.8324   -7.3515 F   0  0  0  0  0  0  0  0  0  0  0  0
   -0.4242    2.3956   -9.0438 F   0  0  0  0  0  0  0  0  0  0  0  0
   -3.9491    4.5983   -5.5853 F   0  0  0  0  0  0  0  0  0  0  0  0
   -1.7369    4.7480   -5.7428 F   0  0  0  0  0  0  0  0  0  0  0  0
   -2.6797    4.0643   -3.8567 F   0  0  0  0  0  0  0  0  0  0  0  0
   -1.8298   -2.8694   -8.2052 H   0  0  0  0  0  0  0  0  0  0  0  0
   -3.4908   -2.1983   -6.5964 H   0  0  0  0  0  0  0  0  0  0  0  0
   -0.1550   -1.3029   -9.0347 H   0  0  0  0  0  0  0  0  0  0  0  0
   -4.4541    2.1161   -4.4514 H   0  0  0  0  0  0  0  0  0  0  0  0
   -4.0012   -4.1678   -2.4993 H   0  0  0  0  0  0  0  0  0  0  0  0
   -2.2749   -3.9317   -2.7468 H   0  0  0  0  0  0  0  0  0  0  0  0
   -4.1812   -2.4709   -0.9080 H   0  0  0  0  0  0  0  0  0  0  0  0
   -2.5349   -3.0195   -0.6003 H   0  0  0  0  0  0  0  0  0  0  0  0
   -4.0396   -3.2016   -4.6060 H   0  0  0  0  0  0  0  0  0  0  0  0
   -2.5548   -2.2757   -4.3410 H   0  0  0  0  0  0  0  0  0  0  0  0
   -1.6463   -1.2256   -2.0645 H   0  0  0  0  0  0  0  0  0  0  0  0
   -2.5874   -0.5600   -0.7303 H   0  0  0  0  0  0  0  0  0  0  0  0
   -5.2303   -1.6795   -3.0325 H   0  0  0  0  0  0  0  0  0  0  0  0
   -5.5923    0.1807   -4.3979 H   0  0  0  0  0  0  0  0  0  0  0  0
   -2.9561    0.1508   -3.2354 H   0  0  0  0  0  0  0  0  0  0  0  0
   -4.1872    0.1654   -2.1310 H   0  0  0  0  0  0  0  0  0  0  0  0
   -5.7844   -0.8554   -6.5092 H   0  0  0  0  0  0  0  0  0  0  0  0
  1  2  2  0
  1  3  1  0
  1 27  1  0
  2  5  1  0
  2 28  1  0
  3  6  2  0
  3 29  1  0
  4  7  1  0
  4  9  2  0
  4 30  1  0
  5  7  2  0
  5  8  1  0
  6  8  1  0
  6 16  1  0
  7 15  1  0
  8 18  2  0
  9 17  1  0
  9 18  1  0
 10 11  1  0
 10 12  1  0
 10 31  1  0
 10 32  1  0
 11 13  1  0
 11 33  1  0
 11 34  1  0
 12 14  1  0
 12 35  1  0
 12 36  1  0
 13 19  1  0
 13 37  1  0
 13 38  1  0
 14 15  1  0
 14 19  1  0
 14 39  1  1
 15 20  1  0
 15 40  1  1
 16 21  1  0
 16 22  1  0
 16 23  1  0
 17 24  1  0
 17 25  1  0
 17 26  1  0
 19 41  1  0
 19 42  1  0
 20 43  1  0
M  CHG  1  19   1
M  END
>  <group_name>  (1) 
RCH

>  <molecule_index>  (1) 
00786

>  <conformer_index>  (1) 
00

>  <method>  (1) 
openff-1.3.0

>  <basis>  (1) 
smirnoff

>  <program>  (1) 
openmm

>  <initial_energy>  (1) 
163.92992633160674 kilocalorie / mole

>  <final_energy>  (1) 
149.18532710176805 kilocalorie / mole

$$$$
