RCH-01195-05
     RDKit          3D

 28 28  0  0  0  0  0  0  0  0999 V2000
   -0.4909   -2.6721    0.6349 C   0  0  0  0  0  0  0  0  0  0  0  0
    1.8331    0.9921    2.7123 C   0  0  0  0  0  0  0  0  0  0  0  0
    2.0798    1.0799    4.0787 C   0  0  0  0  0  0  0  0  0  0  0  0
   -0.3438    1.9007    3.1715 C   0  0  0  0  0  0  0  0  0  0  0  0
    0.5910    1.4188    2.2388 C   0  0  0  0  0  0  0  0  0  0  0  0
    1.1059    1.5871    4.9609 C   0  0  0  0  0  0  0  0  0  0  0  0
    1.1258    2.3152   -0.0315 C   0  0  0  0  0  0  0  0  0  0  0  0
   -0.4308   -0.2890   -1.4962 C   0  0  0  0  0  0  0  0  0  0  0  0
    0.2387    1.3416    0.7603 C   0  0  1  0  0  0  0  0  0  0  0  0
    1.4427    1.6675    6.4554 C   0  0  0  0  0  0  0  0  0  0  0  0
   -0.4709   -3.6957    0.0842 N   0  0  0  0  0  0  0  0  0  0  0  0
   -0.1019    1.9976    4.4907 N   0  0  0  0  0  0  0  0  0  0  0  0
   -0.5387   -1.4403    1.1530 N   0  0  0  0  0  0  0  0  0  0  0  0
    1.7611   -0.7912   -0.0046 O   0  0  0  0  0  0  0  0  0  0  0  0
    0.4201    2.1722    7.2077 F   0  0  0  0  0  0  0  0  0  0  0  0
    1.7480    0.4232    6.9278 F   0  0  0  0  0  0  0  0  0  0  0  0
    2.5360    2.4666    6.6338 F   0  0  0  0  0  0  0  0  0  0  0  0
    0.3526   -0.3866    0.1324 S   0  0  1  0  0  0  0  0  0  0  0  0
    2.5974    0.5918    2.0481 H   0  0  0  0  0  0  0  0  0  0  0  0
    3.0361    0.7502    4.4753 H   0  0  0  0  0  0  0  0  0  0  0  0
   -1.3175    2.2240    2.8152 H   0  0  0  0  0  0  0  0  0  0  0  0
    1.0243    3.3292    0.3690 H   0  0  0  0  0  0  0  0  0  0  0  0
    0.8361    2.3363   -1.0861 H   0  0  0  0  0  0  0  0  0  0  0  0
    2.1792    2.0224    0.0316 H   0  0  0  0  0  0  0  0  0  0  0  0
   -0.4778   -1.2954   -1.9176 H   0  0  0  0  0  0  0  0  0  0  0  0
    0.1700    0.3429   -2.1508 H   0  0  0  0  0  0  0  0  0  0  0  0
   -1.4408    0.1088   -1.3909 H   0  0  0  0  0  0  0  0  0  0  0  0
   -0.8046    1.6395    0.6332 H   0  0  0  0  0  0  0  0  0  0  0  0
  1 11  3  0
  1 13  1  0
  2  3  2  0
  2  5  1  0
  2 19  1  0
  3  6  1  0
  3 20  1  0
  4  5  2  0
  4 12  1  0
  4 21  1  0
  5  9  1  0
  6 10  1  0
  6 12  2  0
  7  9  1  0
  7 22  1  0
  7 23  1  0
  7 24  1  0
 18  8  1  6
  8 25  1  0
  8 26  1  0
  8 27  1  0
  9 18  1  0
  9 28  1  1
 10 15  1  0
 10 16  1  0
 10 17  1  0
 13 18  2  0
 14 18  2  0
M  END
>  <group_name>  (1) 
RCH

>  <molecule_index>  (1) 
01195

>  <conformer_index>  (1) 
05

>  <method>  (1) 
openff-1.3.0

>  <basis>  (1) 
smirnoff

>  <program>  (1) 
openmm

>  <initial_energy>  (1) 
27.01675248922728 kilocalorie / mole

>  <final_energy>  (1) 
8.13268402336265 kilocalorie / mole

$$$$
