RCH-00786-06
     RDKit          3D

 43 45  0  0  0  0  0  0  0  0999 V2000
   -2.1573   -1.7781   -8.2493 C   0  0  0  0  0  0  0  0  0  0  0  0
   -1.9412   -1.6805   -6.8760 C   0  0  0  0  0  0  0  0  0  0  0  0
   -2.3119   -0.6298   -9.0200 C   0  0  0  0  0  0  0  0  0  0  0  0
   -1.5397    1.0160   -4.3574 C   0  0  0  0  0  0  0  0  0  0  0  0
   -1.8681   -0.4188   -6.2459 C   0  0  0  0  0  0  0  0  0  0  0  0
   -2.2447    0.6486   -8.4308 C   0  0  0  0  0  0  0  0  0  0  0  0
   -1.6483   -0.2867   -4.8552 C   0  0  0  0  0  0  0  0  0  0  0  0
   -2.0109    0.7589   -7.0416 C   0  0  0  0  0  0  0  0  0  0  0  0
   -1.6894    2.1400   -5.1810 C   0  0  0  0  0  0  0  0  0  0  0  0
   -4.6020   -1.2681   -1.4788 C   0  0  0  0  0  0  0  0  0  0  0  0
   -5.4875   -2.1685   -2.3576 C   0  0  0  0  0  0  0  0  0  0  0  0
   -3.3445   -0.7755   -2.2164 C   0  0  0  0  0  0  0  0  0  0  0  0
   -5.3138   -1.8255   -3.8380 C   0  0  0  0  0  0  0  0  0  0  0  0
   -2.8614   -1.8265   -3.2372 C   0  0  2  0  0  0  0  0  0  0  0  0
   -1.5039   -1.4699   -3.9050 C   0  0  2  0  0  0  0  0  0  0  0  0
   -2.4166    1.8977   -9.2863 C   0  0  0  0  0  0  0  0  0  0  0  0
   -1.5882    3.5332   -4.5515 C   0  0  0  0  0  0  0  0  0  0  0  0
   -1.9387    1.9886   -6.4996 N   0  0  0  0  0  0  0  0  0  0  0  0
   -3.9093   -2.0408   -4.2734 N   0  0  0  0  0  0  0  0  0  0  0  0
   -0.5226   -1.1849   -2.9046 O   0  0  0  0  0  0  0  0  0  0  0  0
   -2.6370    1.5729  -10.5923 F   0  0  0  0  0  0  0  0  0  0  0  0
   -1.2912    2.6644   -9.2508 F   0  0  0  0  0  0  0  0  0  0  0  0
   -3.5040    2.6061   -8.8695 F   0  0  0  0  0  0  0  0  0  0  0  0
   -0.3558    3.6871   -3.9859 F   0  0  0  0  0  0  0  0  0  0  0  0
   -1.7881    4.5395   -5.4512 F   0  0  0  0  0  0  0  0  0  0  0  0
   -2.5275    3.6418   -3.5657 F   0  0  0  0  0  0  0  0  0  0  0  0
   -2.1936   -2.7527   -8.7330 H   0  0  0  0  0  0  0  0  0  0  0  0
   -1.8057   -2.6186   -6.3502 H   0  0  0  0  0  0  0  0  0  0  0  0
   -2.4753   -0.7507  -10.0902 H   0  0  0  0  0  0  0  0  0  0  0  0
   -1.3415    1.1889   -3.3020 H   0  0  0  0  0  0  0  0  0  0  0  0
   -4.3112   -1.8251   -0.5805 H   0  0  0  0  0  0  0  0  0  0  0  0
   -5.1754   -0.3976   -1.1393 H   0  0  0  0  0  0  0  0  0  0  0  0
   -5.2245   -3.2195   -2.1944 H   0  0  0  0  0  0  0  0  0  0  0  0
   -6.5368   -2.0502   -2.0643 H   0  0  0  0  0  0  0  0  0  0  0  0
   -3.5722    0.1649   -2.7283 H   0  0  0  0  0  0  0  0  0  0  0  0
   -2.5622   -0.5620   -1.4794 H   0  0  0  0  0  0  0  0  0  0  0  0
   -5.6017   -0.7758   -3.9853 H   0  0  0  0  0  0  0  0  0  0  0  0
   -6.0069   -2.4327   -4.4356 H   0  0  0  0  0  0  0  0  0  0  0  0
   -2.6979   -2.7541   -2.6734 H   0  0  0  0  0  0  0  0  0  0  0  0
   -1.1431   -2.3466   -4.4488 H   0  0  0  0  0  0  0  0  0  0  0  0
   -3.7029   -1.3949   -5.0443 H   0  0  0  0  0  0  0  0  0  0  0  0
   -3.8203   -2.9915   -4.6353 H   0  0  0  0  0  0  0  0  0  0  0  0
    0.3342   -0.9513   -3.3108 H   0  0  0  0  0  0  0  0  0  0  0  0
  1  2  2  0
  1  3  1  0
  1 27  1  0
  2  5  1  0
  2 28  1  0
  3  6  2  0
  3 29  1  0
  4  7  1  0
  4  9  2  0
  4 30  1  0
  5  7  2  0
  5  8  1  0
  6  8  1  0
  6 16  1  0
  7 15  1  0
  8 18  2  0
  9 17  1  0
  9 18  1  0
 10 11  1  0
 10 12  1  0
 10 31  1  0
 10 32  1  0
 11 13  1  0
 11 33  1  0
 11 34  1  0
 12 14  1  0
 12 35  1  0
 12 36  1  0
 13 19  1  0
 13 37  1  0
 13 38  1  0
 14 15  1  0
 14 19  1  0
 14 39  1  1
 15 20  1  0
 15 40  1  6
 16 21  1  0
 16 22  1  0
 16 23  1  0
 17 24  1  0
 17 25  1  0
 17 26  1  0
 19 41  1  0
 19 42  1  0
 20 43  1  0
M  CHG  1  19   1
M  END
>  <group_name>  (1) 
RCH

>  <molecule_index>  (1) 
00786

>  <conformer_index>  (1) 
06

>  <method>  (1) 
openff-1.3.0

>  <basis>  (1) 
smirnoff

>  <program>  (1) 
openmm

>  <initial_energy>  (1) 
164.39606036596186 kilocalorie / mole

>  <final_energy>  (1) 
144.7851337236097 kilocalorie / mole

$$$$
