RCH-01195-07
     RDKit          3D

 28 28  0  0  0  0  0  0  0  0999 V2000
   -0.3967   -2.2096   -0.4737 C   0  0  0  0  0  0  0  0  0  0  0  0
    1.5736    2.2526    2.4428 C   0  0  0  0  0  0  0  0  0  0  0  0
    1.4624    2.4854    3.8099 C   0  0  0  0  0  0  0  0  0  0  0  0
    0.7038    0.0488    2.8691 C   0  0  0  0  0  0  0  0  0  0  0  0
    1.1815    1.0084    1.9521 C   0  0  0  0  0  0  0  0  0  0  0  0
    0.9659    1.4925    4.6765 C   0  0  0  0  0  0  0  0  0  0  0  0
    2.3310   -0.3573    0.2001 C   0  0  0  0  0  0  0  0  0  0  0  0
   -1.4478    1.5855    0.3425 C   0  0  0  0  0  0  0  0  0  0  0  0
    1.2679    0.7204    0.4604 C   0  0  1  0  0  0  0  0  0  0  0  0
    0.8614    1.8127    6.1732 C   0  0  0  0  0  0  0  0  0  0  0  0
    0.1650   -3.0297   -1.0765 N   0  0  0  0  0  0  0  0  0  0  0  0
    0.5895    0.2815    4.1888 N   0  0  0  0  0  0  0  0  0  0  0  0
   -0.9470   -1.2332    0.2578 N   0  0  0  0  0  0  0  0  0  0  0  0
   -0.3084    0.3918   -1.7561 O   0  0  0  0  0  0  0  0  0  0  0  0
    2.0946    2.1444    6.6571 F   0  0  0  0  0  0  0  0  0  0  0  0
    0.0361    2.8864    6.3502 F   0  0  0  0  0  0  0  0  0  0  0  0
    0.3754    0.7719    6.9119 F   0  0  0  0  0  0  0  0  0  0  0  0
   -0.3620    0.2876   -0.2907 S   0  0  1  0  0  0  0  0  0  0  0  0
    1.9633    3.0284    1.7870 H   0  0  0  0  0  0  0  0  0  0  0  0
    1.7627    3.4450    4.2224 H   0  0  0  0  0  0  0  0  0  0  0  0
    0.4073   -0.9316    2.5094 H   0  0  0  0  0  0  0  0  0  0  0  0
    2.0720   -1.2983    0.6959 H   0  0  0  0  0  0  0  0  0  0  0  0
    3.3048   -0.0288    0.5770 H   0  0  0  0  0  0  0  0  0  0  0  0
    2.4239   -0.5482   -0.8745 H   0  0  0  0  0  0  0  0  0  0  0  0
   -2.4109    1.4992   -0.1636 H   0  0  0  0  0  0  0  0  0  0  0  0
   -1.5890    1.4452    1.4154 H   0  0  0  0  0  0  0  0  0  0  0  0
   -1.0088    2.5613    0.1342 H   0  0  0  0  0  0  0  0  0  0  0  0
    1.5885    1.6249   -0.0614 H   0  0  0  0  0  0  0  0  0  0  0  0
  1 11  3  0
  1 13  1  0
  2  3  2  0
  2  5  1  0
  2 19  1  0
  3  6  1  0
  3 20  1  0
  4  5  2  0
  4 12  1  0
  4 21  1  0
  5  9  1  0
  6 10  1  0
  6 12  2  0
  7  9  1  0
  7 22  1  0
  7 23  1  0
  7 24  1  0
 18  8  1  1
  8 25  1  0
  8 26  1  0
  8 27  1  0
  9 18  1  0
  9 28  1  6
 10 15  1  0
 10 16  1  0
 10 17  1  0
 13 18  2  0
 14 18  2  0
M  END
>  <group_name>  (1) 
RCH

>  <molecule_index>  (1) 
01195

>  <conformer_index>  (1) 
07

>  <method>  (1) 
openff-1.3.0

>  <basis>  (1) 
smirnoff

>  <program>  (1) 
openmm

>  <initial_energy>  (1) 
27.041407132715296 kilocalorie / mole

>  <final_energy>  (1) 
6.474861893166389 kilocalorie / mole

$$$$
