RCH-00068-06
     RDKit          3D

 43 45  0  0  0  0  0  0  0  0999 V2000
    5.5593   -3.3815   -5.3332 C   0  0  0  0  0  0  0  0  0  0  0  0
    4.3248   -3.1288   -4.7383 C   0  0  0  0  0  0  0  0  0  0  0  0
    5.9076   -2.7490   -6.5231 C   0  0  0  0  0  0  0  0  0  0  0  0
    1.3367   -1.0399   -5.4150 C   0  0  0  0  0  0  0  0  0  0  0  0
    3.4131   -2.2272   -5.3263 C   0  0  0  0  0  0  0  0  0  0  0  0
    5.0219   -1.8469   -7.1459 C   0  0  0  0  0  0  0  0  0  0  0  0
    2.1576   -1.9517   -4.7422 C   0  0  0  0  0  0  0  0  0  0  0  0
    3.7694   -1.5820   -6.5474 C   0  0  0  0  0  0  0  0  0  0  0  0
    1.7319   -0.4364   -6.6174 C   0  0  0  0  0  0  0  0  0  0  0  0
   -0.7924   -5.2946   -4.7898 C   0  0  0  0  0  0  0  0  0  0  0  0
   -1.3210   -5.7100   -3.4131 C   0  0  0  0  0  0  0  0  0  0  0  0
   -0.0746   -3.9427   -4.6976 C   0  0  0  0  0  0  0  0  0  0  0  0
   -0.1868   -5.7259   -2.3884 C   0  0  0  0  0  0  0  0  0  0  0  0
    1.0484   -3.9669   -3.6380 C   0  0  1  0  0  0  0  0  0  0  0  0
    1.6961   -2.5726   -3.4302 C   0  0  2  0  0  0  0  0  0  0  0  0
    5.4135   -1.1655   -8.4505 C   0  0  0  0  0  0  0  0  0  0  0  0
    0.7687    0.5389   -7.3029 C   0  0  0  0  0  0  0  0  0  0  0  0
    2.9359   -0.7193   -7.1585 N   0  0  0  0  0  0  0  0  0  0  0  0
    0.4689   -4.4011   -2.3469 N   0  0  0  0  0  0  0  0  0  0  0  0
    0.7603   -1.7253   -2.7396 O   0  0  0  0  0  0  0  0  0  0  0  0
    6.6559   -1.5555   -8.8559 F   0  0  0  0  0  0  0  0  0  0  0  0
    4.5485   -1.5111   -9.4453 F   0  0  0  0  0  0  0  0  0  0  0  0
    5.4566    0.1869   -8.2899 F   0  0  0  0  0  0  0  0  0  0  0  0
   -0.3997   -0.1104   -7.5837 F   0  0  0  0  0  0  0  0  0  0  0  0
    0.4873    1.5686   -6.4516 F   0  0  0  0  0  0  0  0  0  0  0  0
    1.2675    1.0559   -8.4633 F   0  0  0  0  0  0  0  0  0  0  0  0
    6.2601   -4.0736   -4.8708 H   0  0  0  0  0  0  0  0  0  0  0  0
    4.1151   -3.6556   -3.8145 H   0  0  0  0  0  0  0  0  0  0  0  0
    6.8820   -2.9730   -6.9547 H   0  0  0  0  0  0  0  0  0  0  0  0
    0.3544   -0.7822   -5.0283 H   0  0  0  0  0  0  0  0  0  0  0  0
   -0.1002   -6.0559   -5.1673 H   0  0  0  0  0  0  0  0  0  0  0  0
   -1.6227   -5.2263   -5.5022 H   0  0  0  0  0  0  0  0  0  0  0  0
   -2.1044   -5.0143   -3.0924 H   0  0  0  0  0  0  0  0  0  0  0  0
   -1.7753   -6.7051   -3.4767 H   0  0  0  0  0  0  0  0  0  0  0  0
    0.3426   -3.7015   -5.6813 H   0  0  0  0  0  0  0  0  0  0  0  0
   -0.8041   -3.1623   -4.4538 H   0  0  0  0  0  0  0  0  0  0  0  0
   -0.5938   -5.9963   -1.4043 H   0  0  0  0  0  0  0  0  0  0  0  0
    0.5347   -6.5060   -2.6656 H   0  0  0  0  0  0  0  0  0  0  0  0
    1.8232   -4.6665   -3.9762 H   0  0  0  0  0  0  0  0  0  0  0  0
    2.5647   -2.6819   -2.7733 H   0  0  0  0  0  0  0  0  0  0  0  0
   -0.2067   -3.6718   -2.0915 H   0  0  0  0  0  0  0  0  0  0  0  0
    1.1926   -4.3902   -1.6268 H   0  0  0  0  0  0  0  0  0  0  0  0
    1.1125   -0.8146   -2.6782 H   0  0  0  0  0  0  0  0  0  0  0  0
  1  2  2  0
  1  3  1  0
  1 27  1  0
  2  5  1  0
  2 28  1  0
  3  6  2  0
  3 29  1  0
  4  7  1  0
  4  9  2  0
  4 30  1  0
  5  7  2  0
  5  8  1  0
  6  8  1  0
  6 16  1  0
  7 15  1  0
  8 18  2  0
  9 17  1  0
  9 18  1  0
 10 11  1  0
 10 12  1  0
 10 31  1  0
 10 32  1  0
 11 13  1  0
 11 33  1  0
 11 34  1  0
 12 14  1  0
 12 35  1  0
 12 36  1  0
 13 19  1  0
 13 37  1  0
 13 38  1  0
 14 15  1  0
 14 19  1  0
 14 39  1  6
 15 20  1  0
 15 40  1  1
 16 21  1  0
 16 22  1  0
 16 23  1  0
 17 24  1  0
 17 25  1  0
 17 26  1  0
 19 41  1  0
 19 42  1  0
 20 43  1  0
M  CHG  1  19   1
M  END
>  <group_name>  (1) 
RCH

>  <molecule_index>  (1) 
00068

>  <conformer_index>  (1) 
06

>  <method>  (1) 
openff-1.3.0

>  <basis>  (1) 
smirnoff

>  <program>  (1) 
openmm

>  <initial_energy>  (1) 
145.23295189111917 kilocalorie / mole

>  <final_energy>  (1) 
135.56218549932657 kilocalorie / mole

$$$$
