RCH-00068-04
     RDKit          3D

 43 45  0  0  0  0  0  0  0  0999 V2000
    6.1394   -2.7824   -5.3098 C   0  0  0  0  0  0  0  0  0  0  0  0
    4.8325   -3.1902   -5.0519 C   0  0  0  0  0  0  0  0  0  0  0  0
    6.3855   -1.7249   -6.1799 C   0  0  0  0  0  0  0  0  0  0  0  0
    1.4129   -2.2817   -6.1574 C   0  0  0  0  0  0  0  0  0  0  0  0
    3.7368   -2.5353   -5.6568 C   0  0  0  0  0  0  0  0  0  0  0  0
    5.3233   -1.0645   -6.8288 C   0  0  0  0  0  0  0  0  0  0  0  0
    2.3984   -2.9161   -5.3914 C   0  0  0  0  0  0  0  0  0  0  0  0
    3.9950   -1.4788   -6.5804 C   0  0  0  0  0  0  0  0  0  0  0  0
    1.7213   -1.2556   -7.0632 C   0  0  0  0  0  0  0  0  0  0  0  0
   -1.7202   -3.4164   -3.3230 C   0  0  0  0  0  0  0  0  0  0  0  0
   -1.9835   -4.9262   -3.1825 C   0  0  0  0  0  0  0  0  0  0  0  0
   -0.2195   -3.0926   -3.4326 C   0  0  0  0  0  0  0  0  0  0  0  0
   -0.8299   -5.6144   -2.4479 C   0  0  0  0  0  0  0  0  0  0  0  0
    0.5410   -4.2691   -4.0924 C   0  0  1  0  0  0  0  0  0  0  0  0
    2.0453   -3.9864   -4.3595 C   0  0  2  0  0  0  0  0  0  0  0  0
    5.6079    0.0792   -7.7937 C   0  0  0  0  0  0  0  0  0  0  0  0
    0.5771   -0.5909   -7.8371 C   0  0  0  0  0  0  0  0  0  0  0  0
    2.9986   -0.8612   -7.2404 N   0  0  0  0  0  0  0  0  0  0  0  0
    0.4629   -5.4212   -3.1585 N   0  0  0  0  0  0  0  0  0  0  0  0
    2.6129   -3.6526   -3.0836 O   0  0  0  0  0  0  0  0  0  0  0  0
    5.0152    1.2270   -7.3597 F   0  0  0  0  0  0  0  0  0  0  0  0
    6.9453    0.3335   -7.8755 F   0  0  0  0  0  0  0  0  0  0  0  0
    5.1884   -0.2404   -9.0501 F   0  0  0  0  0  0  0  0  0  0  0  0
   -0.0524   -1.5307   -8.6019 F   0  0  0  0  0  0  0  0  0  0  0  0
   -0.3352   -0.0949   -6.9494 F   0  0  0  0  0  0  0  0  0  0  0  0
    0.9946    0.4256   -8.6459 F   0  0  0  0  0  0  0  0  0  0  0  0
    6.9762   -3.2933   -4.8376 H   0  0  0  0  0  0  0  0  0  0  0  0
    4.7149   -4.0431   -4.3907 H   0  0  0  0  0  0  0  0  0  0  0  0
    7.4212   -1.4354   -6.3520 H   0  0  0  0  0  0  0  0  0  0  0  0
    0.3664   -2.5560   -6.0902 H   0  0  0  0  0  0  0  0  0  0  0  0
   -2.2482   -3.0452   -4.2090 H   0  0  0  0  0  0  0  0  0  0  0  0
   -2.1348   -2.8830   -2.4597 H   0  0  0  0  0  0  0  0  0  0  0  0
   -2.9243   -5.0889   -2.6446 H   0  0  0  0  0  0  0  0  0  0  0  0
   -2.0996   -5.3755   -4.1751 H   0  0  0  0  0  0  0  0  0  0  0  0
    0.1849   -2.9094   -2.4306 H   0  0  0  0  0  0  0  0  0  0  0  0
   -0.0922   -2.1548   -3.9793 H   0  0  0  0  0  0  0  0  0  0  0  0
   -0.7702   -5.1954   -1.4343 H   0  0  0  0  0  0  0  0  0  0  0  0
   -1.0592   -6.6827   -2.3354 H   0  0  0  0  0  0  0  0  0  0  0  0
    0.0581   -4.5106   -5.0478 H   0  0  0  0  0  0  0  0  0  0  0  0
    2.5002   -4.9159   -4.7213 H   0  0  0  0  0  0  0  0  0  0  0  0
    1.2030   -5.2451   -2.4672 H   0  0  0  0  0  0  0  0  0  0  0  0
    0.7099   -6.2775   -3.6577 H   0  0  0  0  0  0  0  0  0  0  0  0
    3.3298   -2.9981   -3.2060 H   0  0  0  0  0  0  0  0  0  0  0  0
  1  2  2  0
  1  3  1  0
  1 27  1  0
  2  5  1  0
  2 28  1  0
  3  6  2  0
  3 29  1  0
  4  7  1  0
  4  9  2  0
  4 30  1  0
  5  7  2  0
  5  8  1  0
  6  8  1  0
  6 16  1  0
  7 15  1  0
  8 18  2  0
  9 17  1  0
  9 18  1  0
 10 11  1  0
 10 12  1  0
 10 31  1  0
 10 32  1  0
 11 13  1  0
 11 33  1  0
 11 34  1  0
 12 14  1  0
 12 35  1  0
 12 36  1  0
 13 19  1  0
 13 37  1  0
 13 38  1  0
 14 15  1  0
 14 19  1  0
 14 39  1  6
 15 20  1  0
 15 40  1  6
 16 21  1  0
 16 22  1  0
 16 23  1  0
 17 24  1  0
 17 25  1  0
 17 26  1  0
 19 41  1  0
 19 42  1  0
 20 43  1  0
M  CHG  1  19   1
M  END
>  <group_name>  (1) 
RCH

>  <molecule_index>  (1) 
00068

>  <conformer_index>  (1) 
04

>  <method>  (1) 
openff-1.3.0

>  <basis>  (1) 
smirnoff

>  <program>  (1) 
openmm

>  <initial_energy>  (1) 
163.6062336490955 kilocalorie / mole

>  <final_energy>  (1) 
146.5620175750942 kilocalorie / mole

$$$$
