RCH-01195-03
     RDKit          3D

 28 28  0  0  0  0  0  0  0  0999 V2000
   -1.6166   -1.5946   -1.4832 C   0  0  0  0  0  0  0  0  0  0  0  0
   -0.1024    1.2424    3.4332 C   0  0  0  0  0  0  0  0  0  0  0  0
    0.6889    1.2883    4.5762 C   0  0  0  0  0  0  0  0  0  0  0  0
    1.8780    1.7821    2.1842 C   0  0  0  0  0  0  0  0  0  0  0  0
    0.4990    1.4862    2.1991 C   0  0  0  0  0  0  0  0  0  0  0  0
    2.0643    1.5764    4.4940 C   0  0  0  0  0  0  0  0  0  0  0  0
    0.2009    2.2681   -0.2283 C   0  0  0  0  0  0  0  0  0  0  0  0
    0.9350   -1.0542    0.3129 C   0  0  0  0  0  0  0  0  0  0  0  0
   -0.3605    1.4374    0.9394 C   0  0  1  0  0  0  0  0  0  0  0  0
    2.8859    1.6089    5.7892 C   0  0  0  0  0  0  0  0  0  0  0  0
   -1.6152   -2.7138   -1.7969 N   0  0  0  0  0  0  0  0  0  0  0  0
    2.6437    1.8183    3.2880 N   0  0  0  0  0  0  0  0  0  0  0  0
   -1.4992   -0.3226   -1.0874 N   0  0  0  0  0  0  0  0  0  0  0  0
   -1.5005   -0.9684    1.4799 O   0  0  0  0  0  0  0  0  0  0  0  0
    4.2017    1.9087    5.5780 F   0  0  0  0  0  0  0  0  0  0  0  0
    2.8179    0.3911    6.4031 F   0  0  0  0  0  0  0  0  0  0  0  0
    2.3650    2.5425    6.6388 F   0  0  0  0  0  0  0  0  0  0  0  0
   -0.7071   -0.3001    0.4368 S   0  0  1  0  0  0  0  0  0  0  0  0
   -1.1637    1.0086    3.5116 H   0  0  0  0  0  0  0  0  0  0  0  0
    0.2429    1.0963    5.5486 H   0  0  0  0  0  0  0  0  0  0  0  0
    2.3801    1.9810    1.2433 H   0  0  0  0  0  0  0  0  0  0  0  0
   -0.5162    2.2882   -1.0561 H   0  0  0  0  0  0  0  0  0  0  0  0
    0.3757    3.3012    0.0894 H   0  0  0  0  0  0  0  0  0  0  0  0
    1.1377    1.8485   -0.6068 H   0  0  0  0  0  0  0  0  0  0  0  0
    1.5113   -0.5498   -0.4631 H   0  0  0  0  0  0  0  0  0  0  0  0
    1.4393   -0.9858    1.2776 H   0  0  0  0  0  0  0  0  0  0  0  0
    0.8126   -2.1066    0.0488 H   0  0  0  0  0  0  0  0  0  0  0  0
   -1.3384    1.8588    1.1869 H   0  0  0  0  0  0  0  0  0  0  0  0
  1 11  3  0
  1 13  1  0
  2  3  2  0
  2  5  1  0
  2 19  1  0
  3  6  1  0
  3 20  1  0
  4  5  2  0
  4 12  1  0
  4 21  1  0
  5  9  1  0
  6 10  1  0
  6 12  2  0
  7  9  1  0
  7 22  1  0
  7 23  1  0
  7 24  1  0
 18  8  1  6
  8 25  1  0
  8 26  1  0
  8 27  1  0
  9 18  1  0
  9 28  1  1
 10 15  1  0
 10 16  1  0
 10 17  1  0
 13 18  2  0
 14 18  2  0
M  END
>  <group_name>  (1) 
RCH

>  <molecule_index>  (1) 
01195

>  <conformer_index>  (1) 
03

>  <method>  (1) 
openff-1.3.0

>  <basis>  (1) 
smirnoff

>  <program>  (1) 
openmm

>  <initial_energy>  (1) 
26.619215175928943 kilocalorie / mole

>  <final_energy>  (1) 
7.467967005450677 kilocalorie / mole

$$$$
