XTP-01155-03
     RDKit          3D

 41 45  0  0  0  0  0  0  0  0999 V2000
    4.1591   -1.4797    1.1467 C   0  0  0  0  0  0  0  0  0  0  0  0
    4.2055   -0.4153    2.0683 C   0  0  0  0  0  0  0  0  0  0  0  0
   -4.3025   -1.6703    0.5383 C   0  0  0  0  0  0  0  0  0  0  0  0
    3.1661   -1.5173    0.1537 C   0  0  0  0  0  0  0  0  0  0  0  0
    3.2587    0.6205    2.0050 C   0  0  0  0  0  0  0  0  0  0  0  0
   -3.9338   -2.7637   -0.2369 C   0  0  0  0  0  0  0  0  0  0  0  0
   -3.4914   -0.5426    0.4972 C   0  0  0  0  0  0  0  0  0  0  0  0
    1.4984    0.4605   -2.0892 C   0  0  0  0  0  0  0  0  0  0  0  0
    1.9515    3.7133   -0.4042 C   0  0  0  0  0  0  0  0  0  0  0  0
    2.2454   -0.4681    0.0956 C   0  0  0  0  0  0  0  0  0  0  0  0
    2.2898    0.5703    0.9998 C   0  0  0  0  0  0  0  0  0  0  0  0
    1.6206    2.3957   -0.3944 C   0  0  0  0  0  0  0  0  0  0  0  0
    1.8247    1.8896   -1.7243 C   0  0  0  0  0  0  0  0  0  0  0  0
    1.0661   -0.3057   -0.8237 C   0  0  1  0  0  0  0  0  0  0  0  0
   -2.7751   -2.7187   -1.0350 C   0  0  0  0  0  0  0  0  0  0  0  0
   -2.3378   -0.5175   -0.3086 C   0  0  0  0  0  0  0  0  0  0  0  0
    1.1603    1.5141    0.7306 C   0  0  1  0  0  0  0  0  0  0  0  0
   -2.4019   -3.9547   -1.8589 C   0  0  0  0  0  0  0  0  0  0  0  0
   -1.1960   -3.8260   -2.4891 F   0  0  0  0  0  0  0  0  0  0  0  0
   -3.3616   -4.1841   -2.8021 F   0  0  0  0  0  0  0  0  0  0  0  0
   -2.3369   -5.0496   -1.0450 F   0  0  0  0  0  0  0  0  0  0  0  0
    2.3464    3.9574   -1.7169 N   0  0  0  0  0  0  0  0  0  0  0  0
   -1.9959   -1.6045   -1.0636 N   0  0  0  0  0  0  0  0  0  0  0  0
    2.2725    2.8415   -2.5028 N   0  0  0  0  0  0  0  0  0  0  0  0
    0.2874    0.4952    0.1418 N   0  0  0  0  0  0  0  0  0  0  0  0
   -1.2674    1.6905   -1.6298 O   0  0  0  0  0  0  0  0  0  0  0  0
   -1.7632    1.9806    0.7380 O   0  0  0  0  0  0  0  0  0  0  0  0
   -1.2952    1.0435   -0.3053 S   0  0  0  0  0  0  0  0  0  0  0  0
    4.8906   -2.2803    1.2080 H   0  0  0  0  0  0  0  0  0  0  0  0
    4.9737   -0.3985    2.8359 H   0  0  0  0  0  0  0  0  0  0  0  0
   -5.1957   -1.6952    1.1585 H   0  0  0  0  0  0  0  0  0  0  0  0
    3.1128   -2.3427   -0.5502 H   0  0  0  0  0  0  0  0  0  0  0  0
    3.2790    1.4397    2.7170 H   0  0  0  0  0  0  0  0  0  0  0  0
   -4.5430   -3.6632   -0.2280 H   0  0  0  0  0  0  0  0  0  0  0  0
   -3.7469    0.3314    1.0922 H   0  0  0  0  0  0  0  0  0  0  0  0
    0.6864    0.4659   -2.8203 H   0  0  0  0  0  0  0  0  0  0  0  0
    2.3621   -0.0198   -2.5549 H   0  0  0  0  0  0  0  0  0  0  0  0
    1.9202    4.4144    0.4252 H   0  0  0  0  0  0  0  0  0  0  0  0
    0.6058   -1.2685   -1.0703 H   0  0  0  0  0  0  0  0  0  0  0  0
    0.7618    2.0353    1.6088 H   0  0  0  0  0  0  0  0  0  0  0  0
    2.6368    4.8720   -2.0655 H   0  0  0  0  0  0  0  0  0  0  0  0
  1  2  2  0
  1  4  1  0
  1 29  1  0
  2  5  1  0
  2 30  1  0
  3  6  2  0
  3  7  1  0
  3 31  1  0
  4 10  2  0
  4 32  1  0
  5 11  2  0
  5 33  1  0
  6 15  1  0
  6 34  1  0
  7 16  2  0
  7 35  1  0
  8 13  1  0
  8 14  1  0
  8 36  1  0
  8 37  1  0
  9 12  2  0
  9 22  1  0
  9 38  1  0
 10 11  1  0
 10 14  1  0
 11 17  1  0
 12 13  1  0
 12 17  1  0
 13 24  2  0
 14 25  1  0
 14 39  1  6
 15 18  1  0
 15 23  2  0
 16 23  1  0
 16 28  1  0
 17 25  1  0
 17 40  1  1
 18 19  1  0
 18 20  1  0
 18 21  1  0
 22 24  1  0
 22 41  1  0
 25 28  1  0
 26 28  2  0
 27 28  2  0
M  END
>  <group_name>  (1) 
XTP

>  <molecule_index>  (1) 
01155

>  <conformer_index>  (1) 
03

>  <method>  (1) 
openff-1.3.0

>  <basis>  (1) 
smirnoff

>  <program>  (1) 
openmm

>  <initial_energy>  (1) 
189.4989522614296 kilocalorie / mole

>  <final_energy>  (1) 
165.241920029318 kilocalorie / mole

$$$$
