XTP-00577-00
     RDKit          3D

 38 41  0  0  0  0  0  0  0  0999 V2000
    1.3857   -2.6964    1.9781 C   0  0  0  0  0  0  0  0  0  0  0  0
    2.5896   -2.8456    2.6576 C   0  0  0  0  0  0  0  0  0  0  0  0
   -2.0133    0.0345    1.1898 C   0  0  0  0  0  0  0  0  0  0  0  0
   -1.6015   -1.1778    0.6567 C   0  0  0  0  0  0  0  0  0  0  0  0
   -1.7437   -1.7753    4.3210 C   0  0  0  0  0  0  0  0  0  0  0  0
    0.5923   -4.6049    3.2034 C   0  0  0  0  0  0  0  0  0  0  0  0
   -0.2675    0.1909    5.0572 C   0  0  0  0  0  0  0  0  0  0  0  0
   -1.3495    1.8718    3.7876 C   0  0  0  0  0  0  0  0  0  0  0  0
   -0.9873   -3.4816    1.5823 C   0  0  0  0  0  0  0  0  0  0  0  0
    0.3614   -3.6000    2.2547 C   0  0  0  0  0  0  0  0  0  0  0  0
   -1.6931   -0.3199    4.8703 C   0  0  1  0  0  0  0  0  0  0  0  0
   -2.1917   -0.2081    2.6009 C   0  0  0  0  0  0  0  0  0  0  0  0
   -2.2825    0.6594    3.8129 C   0  0  2  0  0  0  0  0  0  0  0  0
   -1.9045   -1.4850    2.8666 C   0  0  0  0  0  0  0  0  0  0  0  0
    2.7659   -3.8792    3.5988 C   0  0  0  0  0  0  0  0  0  0  0  0
    4.1158   -3.9899    4.3187 C   0  0  0  0  0  0  0  0  0  0  0  0
    4.3669   -2.8345    5.0027 F   0  0  0  0  0  0  0  0  0  0  0  0
    5.1129   -4.1632    3.4014 F   0  0  0  0  0  0  0  0  0  0  0  0
    4.1660   -5.0290    5.2042 F   0  0  0  0  0  0  0  0  0  0  0  0
   -0.4603    1.6330    4.9270 N   0  0  0  0  0  0  0  0  0  0  0  0
    1.7570   -4.7531    3.8613 N   0  0  0  0  0  0  0  0  0  0  0  0
   -1.5121   -2.1178    1.6959 N   0  0  0  0  0  0  0  0  0  0  0  0
    1.2481   -1.8888    1.2620 H   0  0  0  0  0  0  0  0  0  0  0  0
    3.4050   -2.1542    2.4651 H   0  0  0  0  0  0  0  0  0  0  0  0
   -2.1590    0.9730    0.6625 H   0  0  0  0  0  0  0  0  0  0  0  0
   -1.3694   -1.3612   -0.3880 H   0  0  0  0  0  0  0  0  0  0  0  0
   -2.6182   -2.3103    4.7031 H   0  0  0  0  0  0  0  0  0  0  0  0
   -0.8315   -2.3370    4.5422 H   0  0  0  0  0  0  0  0  0  0  0  0
   -0.2073   -5.3044    3.4293 H   0  0  0  0  0  0  0  0  0  0  0  0
    0.1447   -0.0866    6.0329 H   0  0  0  0  0  0  0  0  0  0  0  0
    0.3857   -0.1850    4.2616 H   0  0  0  0  0  0  0  0  0  0  0  0
   -0.7784    1.8915    2.8534 H   0  0  0  0  0  0  0  0  0  0  0  0
   -1.8987    2.8125    3.8954 H   0  0  0  0  0  0  0  0  0  0  0  0
   -1.7045   -4.1746    2.0326 H   0  0  0  0  0  0  0  0  0  0  0  0
   -0.8924   -3.7504    0.5260 H   0  0  0  0  0  0  0  0  0  0  0  0
   -2.2297   -0.2317    5.8201 H   0  0  0  0  0  0  0  0  0  0  0  0
   -3.3162    0.9350    4.0413 H   0  0  0  0  0  0  0  0  0  0  0  0
    0.4163    2.1501    4.8607 H   0  0  0  0  0  0  0  0  0  0  0  0
  1  2  2  0
  1 10  1  0
  1 23  1  0
  2 15  1  0
  2 24  1  0
  3  4  2  0
  3 12  1  0
  3 25  1  0
  4 22  1  0
  4 26  1  0
  5 11  1  0
  5 14  1  0
  5 27  1  0
  5 28  1  0
  6 10  2  0
  6 21  1  0
  6 29  1  0
  7 11  1  0
  7 20  1  0
  7 30  1  0
  7 31  1  0
  8 13  1  0
  8 20  1  0
  8 32  1  0
  8 33  1  0
  9 10  1  0
  9 22  1  0
  9 34  1  0
  9 35  1  0
 11 13  1  0
 11 36  1  1
 12 13  1  0
 12 14  2  0
 13 37  1  1
 14 22  1  0
 15 16  1  0
 15 21  2  0
 16 17  1  0
 16 18  1  0
 16 19  1  0
 20 38  1  0
M  END
>  <group_name>  (1) 
XTP

>  <molecule_index>  (1) 
00577

>  <conformer_index>  (1) 
00

>  <method>  (1) 
openff-1.3.0

>  <basis>  (1) 
smirnoff

>  <program>  (1) 
openmm

>  <initial_energy>  (1) 
143.90523004578498 kilocalorie / mole

>  <final_energy>  (1) 
134.4128773781618 kilocalorie / mole

$$$$
