XTP-01155-08
     RDKit          3D

 41 45  0  0  0  0  0  0  0  0999 V2000
    5.1955    0.6051    0.7929 C   0  0  0  0  0  0  0  0  0  0  0  0
    4.6105    1.5202    1.6895 C   0  0  0  0  0  0  0  0  0  0  0  0
   -3.6035   -0.0643   -0.2290 C   0  0  0  0  0  0  0  0  0  0  0  0
    4.4031   -0.3479    0.1320 C   0  0  0  0  0  0  0  0  0  0  0  0
    3.2275    1.4901    1.9330 C   0  0  0  0  0  0  0  0  0  0  0  0
   -3.5996   -0.3841   -1.5813 C   0  0  0  0  0  0  0  0  0  0  0  0
   -2.6080   -0.6142    0.5691 C   0  0  0  0  0  0  0  0  0  0  0  0
    1.4181   -0.7297   -1.4763 C   0  0  0  0  0  0  0  0  0  0  0  0
   -0.4264    2.0643    0.0972 C   0  0  0  0  0  0  0  0  0  0  0  0
    3.0267   -0.3498    0.3724 C   0  0  0  0  0  0  0  0  0  0  0  0
    2.4555    0.5451    1.2523 C   0  0  0  0  0  0  0  0  0  0  0  0
    0.3609    0.9584    0.1691 C   0  0  0  0  0  0  0  0  0  0  0  0
    0.5942    0.5045   -1.1788 C   0  0  0  0  0  0  0  0  0  0  0  0
    1.9857   -1.2957   -0.1626 C   0  0  1  0  0  0  0  0  0  0  0  0
   -2.6255   -1.2523   -2.1100 C   0  0  0  0  0  0  0  0  0  0  0  0
   -1.6352   -1.4703    0.0184 C   0  0  0  0  0  0  0  0  0  0  0  0
    0.9863    0.2808    1.3551 C   0  0  1  0  0  0  0  0  0  0  0  0
   -2.6479   -1.5547   -3.6113 C   0  0  0  0  0  0  0  0  0  0  0  0
   -1.5243   -2.2037   -4.0392 F   0  0  0  0  0  0  0  0  0  0  0  0
   -2.7596   -0.3924   -4.3211 F   0  0  0  0  0  0  0  0  0  0  0  0
   -3.7345   -2.3283   -3.9018 F   0  0  0  0  0  0  0  0  0  0  0  0
   -0.6539    2.2351   -1.2659 N   0  0  0  0  0  0  0  0  0  0  0  0
   -1.6733   -1.7957   -1.3064 N   0  0  0  0  0  0  0  0  0  0  0  0
   -0.0352    1.2808   -2.0234 N   0  0  0  0  0  0  0  0  0  0  0  0
    1.0934   -1.1313    0.9962 N   0  0  0  0  0  0  0  0  0  0  0  0
   -0.7469   -1.9998    2.5764 O   0  0  0  0  0  0  0  0  0  0  0  0
    0.0808   -3.5260    0.8609 O   0  0  0  0  0  0  0  0  0  0  0  0
   -0.3092   -2.1377    1.1720 S   0  0  0  0  0  0  0  0  0  0  0  0
    6.2674    0.6290    0.6184 H   0  0  0  0  0  0  0  0  0  0  0  0
    5.2340    2.2470    2.2021 H   0  0  0  0  0  0  0  0  0  0  0  0
   -4.3589    0.5955    0.1908 H   0  0  0  0  0  0  0  0  0  0  0  0
    4.8498   -1.0695   -0.5457 H   0  0  0  0  0  0  0  0  0  0  0  0
    2.7710    2.1821    2.6339 H   0  0  0  0  0  0  0  0  0  0  0  0
   -4.3559    0.0333   -2.2398 H   0  0  0  0  0  0  0  0  0  0  0  0
   -2.5754   -0.3849    1.6313 H   0  0  0  0  0  0  0  0  0  0  0  0
    0.7916   -1.4764   -1.9661 H   0  0  0  0  0  0  0  0  0  0  0  0
    2.2274   -0.4849   -2.1684 H   0  0  0  0  0  0  0  0  0  0  0  0
   -0.7808    2.6855    0.9155 H   0  0  0  0  0  0  0  0  0  0  0  0
    2.3684   -2.3167   -0.2773 H   0  0  0  0  0  0  0  0  0  0  0  0
    0.5374    0.4950    2.3321 H   0  0  0  0  0  0  0  0  0  0  0  0
   -1.1942    3.0046   -1.6651 H   0  0  0  0  0  0  0  0  0  0  0  0
  1  2  2  0
  1  4  1  0
  1 29  1  0
  2  5  1  0
  2 30  1  0
  3  6  2  0
  3  7  1  0
  3 31  1  0
  4 10  2  0
  4 32  1  0
  5 11  2  0
  5 33  1  0
  6 15  1  0
  6 34  1  0
  7 16  2  0
  7 35  1  0
  8 13  1  0
  8 14  1  0
  8 36  1  0
  8 37  1  0
  9 12  2  0
  9 22  1  0
  9 38  1  0
 10 11  1  0
 10 14  1  0
 11 17  1  0
 12 13  1  0
 12 17  1  0
 13 24  2  0
 14 25  1  0
 14 39  1  6
 15 18  1  0
 15 23  2  0
 16 23  1  0
 16 28  1  0
 17 25  1  0
 17 40  1  1
 18 19  1  0
 18 20  1  0
 18 21  1  0
 22 24  1  0
 22 41  1  0
 25 28  1  0
 26 28  2  0
 27 28  2  0
M  END
>  <group_name>  (1) 
XTP

>  <molecule_index>  (1) 
01155

>  <conformer_index>  (1) 
08

>  <method>  (1) 
openff-1.3.0

>  <basis>  (1) 
smirnoff

>  <program>  (1) 
openmm

>  <initial_energy>  (1) 
187.6382729944741 kilocalorie / mole

>  <final_energy>  (1) 
164.30566244658212 kilocalorie / mole

$$$$
