XTP-00577-07
     RDKit          3D

 38 41  0  0  0  0  0  0  0  0999 V2000
    2.6492   -2.3084    1.9697 C   0  0  0  0  0  0  0  0  0  0  0  0
    3.4188   -3.3248    2.5260 C   0  0  0  0  0  0  0  0  0  0  0  0
   -3.0312   -1.3259    2.2660 C   0  0  0  0  0  0  0  0  0  0  0  0
   -2.1131   -1.5715    1.2545 C   0  0  0  0  0  0  0  0  0  0  0  0
   -0.0299   -0.6045    4.1770 C   0  0  0  0  0  0  0  0  0  0  0  0
    0.8448   -3.8949    1.8645 C   0  0  0  0  0  0  0  0  0  0  0  0
   -1.1768    1.5590    4.9812 C   0  0  0  0  0  0  0  0  0  0  0  0
   -3.3773    0.8095    4.7247 C   0  0  0  0  0  0  0  0  0  0  0  0
    0.4375   -1.5373    1.0330 C   0  0  0  0  0  0  0  0  0  0  0  0
    1.3324   -2.6006    1.6250 C   0  0  0  0  0  0  0  0  0  0  0  0
   -1.0724    0.0446    5.1384 C   0  0  1  0  0  0  0  0  0  0  0  0
   -2.2399   -1.0509    3.4402 C   0  0  0  0  0  0  0  0  0  0  0  0
   -2.5061   -0.4453    4.7752 C   0  0  2  0  0  0  0  0  0  0  0  0
   -0.9470   -1.1270    3.1258 C   0  0  0  0  0  0  0  0  0  0  0  0
    2.8800   -4.6103    2.7344 C   0  0  0  0  0  0  0  0  0  0  0  0
    3.7802   -5.6892    3.3498 C   0  0  0  0  0  0  0  0  0  0  0  0
    3.1498   -6.8918    3.5009 F   0  0  0  0  0  0  0  0  0  0  0  0
    4.2157   -5.2785    4.5776 F   0  0  0  0  0  0  0  0  0  0  0  0
    4.8757   -5.8796    2.5565 F   0  0  0  0  0  0  0  0  0  0  0  0
   -2.5527    1.8098    5.4069 N   0  0  0  0  0  0  0  0  0  0  0  0
    1.5912   -4.8816    2.3966 N   0  0  0  0  0  0  0  0  0  0  0  0
   -0.8183   -1.4360    1.7808 N   0  0  0  0  0  0  0  0  0  0  0  0
    3.0698   -1.3176    1.8143 H   0  0  0  0  0  0  0  0  0  0  0  0
    4.4500   -3.1289    2.8055 H   0  0  0  0  0  0  0  0  0  0  0  0
   -4.1148   -1.3256    2.1900 H   0  0  0  0  0  0  0  0  0  0  0  0
   -2.3599   -1.8097    0.2242 H   0  0  0  0  0  0  0  0  0  0  0  0
    0.4990   -1.4285    4.6659 H   0  0  0  0  0  0  0  0  0  0  0  0
    0.6870    0.1196    3.7781 H   0  0  0  0  0  0  0  0  0  0  0  0
   -0.1853   -4.1239    1.6062 H   0  0  0  0  0  0  0  0  0  0  0  0
   -1.0439    1.8499    3.9330 H   0  0  0  0  0  0  0  0  0  0  0  0
   -0.4470    2.0901    5.6008 H   0  0  0  0  0  0  0  0  0  0  0  0
   -4.3439    0.6625    5.2169 H   0  0  0  0  0  0  0  0  0  0  0  0
   -3.5467    1.1114    3.6853 H   0  0  0  0  0  0  0  0  0  0  0  0
    0.2235   -1.7837   -0.0113 H   0  0  0  0  0  0  0  0  0  0  0  0
    0.9377   -0.5644    1.0464 H   0  0  0  0  0  0  0  0  0  0  0  0
   -0.8415   -0.1922    6.1816 H   0  0  0  0  0  0  0  0  0  0  0  0
   -2.8774   -1.1819    5.4940 H   0  0  0  0  0  0  0  0  0  0  0  0
   -2.6167    1.6634    6.4139 H   0  0  0  0  0  0  0  0  0  0  0  0
  1  2  2  0
  1 10  1  0
  1 23  1  0
  2 15  1  0
  2 24  1  0
  3  4  2  0
  3 12  1  0
  3 25  1  0
  4 22  1  0
  4 26  1  0
  5 11  1  0
  5 14  1  0
  5 27  1  0
  5 28  1  0
  6 10  2  0
  6 21  1  0
  6 29  1  0
  7 11  1  0
  7 20  1  0
  7 30  1  0
  7 31  1  0
  8 13  1  0
  8 20  1  0
  8 32  1  0
  8 33  1  0
  9 10  1  0
  9 22  1  0
  9 34  1  0
  9 35  1  0
 11 13  1  0
 11 36  1  1
 12 13  1  0
 12 14  2  0
 13 37  1  1
 14 22  1  0
 15 16  1  0
 15 21  2  0
 16 17  1  0
 16 18  1  0
 16 19  1  0
 20 38  1  0
M  END
>  <group_name>  (1) 
XTP

>  <molecule_index>  (1) 
00577

>  <conformer_index>  (1) 
07

>  <method>  (1) 
openff-1.3.0

>  <basis>  (1) 
smirnoff

>  <program>  (1) 
openmm

>  <initial_energy>  (1) 
144.93100875920825 kilocalorie / mole

>  <final_energy>  (1) 
134.94547499468484 kilocalorie / mole

$$$$
