XTP-00577-03
     RDKit          3D

 38 41  0  0  0  0  0  0  0  0999 V2000
    1.1589   -4.2752    1.0470 C   0  0  0  0  0  0  0  0  0  0  0  0
    2.1166   -5.2287    1.3767 C   0  0  0  0  0  0  0  0  0  0  0  0
   -2.4610   -1.9421    4.1458 C   0  0  0  0  0  0  0  0  0  0  0  0
   -1.8664   -2.5456    3.0473 C   0  0  0  0  0  0  0  0  0  0  0  0
    0.0874    0.5740    3.5593 C   0  0  0  0  0  0  0  0  0  0  0  0
    2.0270   -2.9516    2.8577 C   0  0  0  0  0  0  0  0  0  0  0  0
   -1.7809    2.3415    3.7318 C   0  0  0  0  0  0  0  0  0  0  0  0
   -3.2142    1.0893    5.0914 C   0  0  0  0  0  0  0  0  0  0  0  0
    0.1036   -2.0281    1.5021 C   0  0  0  0  0  0  0  0  0  0  0  0
    1.1141   -3.1075    1.8037 C   0  0  0  0  0  0  0  0  0  0  0  0
   -0.8460    1.4047    4.4919 C   0  0  1  0  0  0  0  0  0  0  0  0
   -1.6470   -0.7865    4.4335 C   0  0  0  0  0  0  0  0  0  0  0  0
   -1.8307    0.4554    5.2363 C   0  0  2  0  0  0  0  0  0  0  0  0
   -0.6465   -0.7237    3.5535 C   0  0  0  0  0  0  0  0  0  0  0  0
    3.0142   -5.0163    2.4426 C   0  0  0  0  0  0  0  0  0  0  0  0
    4.0499   -6.1041    2.7542 C   0  0  0  0  0  0  0  0  0  0  0  0
    4.8354   -6.3168    1.6570 F   0  0  0  0  0  0  0  0  0  0  0  0
    4.8634   -5.7849    3.8043 F   0  0  0  0  0  0  0  0  0  0  0  0
    3.4123   -7.2755    3.0489 F   0  0  0  0  0  0  0  0  0  0  0  0
   -2.9070    2.4542    4.6570 N   0  0  0  0  0  0  0  0  0  0  0  0
    2.9593   -3.8707    3.1731 N   0  0  0  0  0  0  0  0  0  0  0  0
   -0.7476   -1.7873    2.6692 N   0  0  0  0  0  0  0  0  0  0  0  0
    0.4695   -4.4451    0.2232 H   0  0  0  0  0  0  0  0  0  0  0  0
    2.1773   -6.1515    0.8067 H   0  0  0  0  0  0  0  0  0  0  0  0
   -3.3566   -2.2614    4.6710 H   0  0  0  0  0  0  0  0  0  0  0  0
   -2.2170   -3.4478    2.5554 H   0  0  0  0  0  0  0  0  0  0  0  0
    1.0792    0.4510    4.0048 H   0  0  0  0  0  0  0  0  0  0  0  0
    0.1746    1.0060    2.5577 H   0  0  0  0  0  0  0  0  0  0  0  0
    1.9916   -2.0428    3.4517 H   0  0  0  0  0  0  0  0  0  0  0  0
   -1.3157    3.3104    3.5235 H   0  0  0  0  0  0  0  0  0  0  0  0
   -2.1061    1.8844    2.7902 H   0  0  0  0  0  0  0  0  0  0  0  0
   -3.7790    1.0693    6.0288 H   0  0  0  0  0  0  0  0  0  0  0  0
   -3.7890    0.5715    4.3157 H   0  0  0  0  0  0  0  0  0  0  0  0
    0.6214   -1.1046    1.2267 H   0  0  0  0  0  0  0  0  0  0  0  0
   -0.5231   -2.3132    0.6519 H   0  0  0  0  0  0  0  0  0  0  0  0
   -0.2618    1.9879    5.2105 H   0  0  0  0  0  0  0  0  0  0  0  0
   -1.5451    0.3138    6.2829 H   0  0  0  0  0  0  0  0  0  0  0  0
   -2.6147    3.0032    5.4649 H   0  0  0  0  0  0  0  0  0  0  0  0
  1  2  2  0
  1 10  1  0
  1 23  1  0
  2 15  1  0
  2 24  1  0
  3  4  2  0
  3 12  1  0
  3 25  1  0
  4 22  1  0
  4 26  1  0
  5 11  1  0
  5 14  1  0
  5 27  1  0
  5 28  1  0
  6 10  2  0
  6 21  1  0
  6 29  1  0
  7 11  1  0
  7 20  1  0
  7 30  1  0
  7 31  1  0
  8 13  1  0
  8 20  1  0
  8 32  1  0
  8 33  1  0
  9 10  1  0
  9 22  1  0
  9 34  1  0
  9 35  1  0
 11 13  1  0
 11 36  1  1
 12 13  1  0
 12 14  2  0
 13 37  1  1
 14 22  1  0
 15 16  1  0
 15 21  2  0
 16 17  1  0
 16 18  1  0
 16 19  1  0
 20 38  1  0
M  END
>  <group_name>  (1) 
XTP

>  <molecule_index>  (1) 
00577

>  <conformer_index>  (1) 
03

>  <method>  (1) 
openff-1.3.0

>  <basis>  (1) 
smirnoff

>  <program>  (1) 
openmm

>  <initial_energy>  (1) 
145.44890272185475 kilocalorie / mole

>  <final_energy>  (1) 
134.84554291375838 kilocalorie / mole

$$$$
