XTP-00455-00
     RDKit          3D

 32 35  0  0  0  0  0  0  0  0999 V2000
    1.8430    1.5991    0.0095 C   0  0  0  0  0  0  0  0  0  0  0  0
    3.1999    1.2886   -0.0175 C   0  0  0  0  0  0  0  0  0  0  0  0
   -5.5241   -1.5349    0.0829 C   0  0  0  0  0  0  0  0  0  0  0  0
    1.4170   -0.7603   -0.0003 C   0  0  0  0  0  0  0  0  0  0  0  0
   -2.8743   -1.9383    0.0587 C   0  0  0  0  0  0  0  0  0  0  0  0
   -1.1494    2.1873    0.0665 C   0  0  0  0  0  0  0  0  0  0  0  0
   -5.3302    0.8832    0.0754 C   0  0  0  0  0  0  0  0  0  0  0  0
    0.9106    0.5582    0.0185 C   0  0  0  0  0  0  0  0  0  0  0  0
   -4.0913   -1.1236    0.0943 C   0  0  0  0  0  0  0  0  0  0  0  0
   -0.5426    0.8568    0.0469 C   0  0  0  0  0  0  0  0  0  0  0  0
   -3.9949    0.2281    0.1017 C   0  0  0  0  0  0  0  0  0  0  0  0
    3.6383   -0.0517   -0.0357 C   0  0  0  0  0  0  0  0  0  0  0  0
   -1.6140    0.0016    0.0582 C   0  0  0  0  0  0  0  0  0  0  0  0
    5.1409   -0.3784   -0.0654 C   0  0  0  0  0  0  0  0  0  0  0  0
    5.9162    0.7479   -0.0619 F   0  0  0  0  0  0  0  0  0  0  0  0
    5.4547   -1.0813   -1.1931 F   0  0  0  0  0  0  0  0  0  0  0  0
    5.4926   -1.1140    1.0298 F   0  0  0  0  0  0  0  0  0  0  0  0
   -6.1321   -0.2739   -0.3911 N   0  0  0  0  0  0  0  0  0  0  0  0
    2.7317   -1.0620   -0.0267 N   0  0  0  0  0  0  0  0  0  0  0  0
   -1.6725   -1.4010    0.0428 N   0  0  0  0  0  0  0  0  0  0  0  0
   -2.4582    2.1389    0.0865 N   0  0  0  0  0  0  0  0  0  0  0  0
   -2.7422    0.8145    0.0844 N   0  0  0  0  0  0  0  0  0  0  0  0
    1.5445    2.6423    0.0230 H   0  0  0  0  0  0  0  0  0  0  0  0
    3.9205    2.1009   -0.0244 H   0  0  0  0  0  0  0  0  0  0  0  0
   -5.8573   -1.7802    1.0978 H   0  0  0  0  0  0  0  0  0  0  0  0
   -5.7244   -2.3755   -0.5906 H   0  0  0  0  0  0  0  0  0  0  0  0
    0.7466   -1.6096    0.0060 H   0  0  0  0  0  0  0  0  0  0  0  0
   -2.9644   -3.0205    0.0450 H   0  0  0  0  0  0  0  0  0  0  0  0
   -0.5934    3.1193    0.0635 H   0  0  0  0  0  0  0  0  0  0  0  0
   -5.3689    1.7377   -0.6088 H   0  0  0  0  0  0  0  0  0  0  0  0
   -5.6152    1.1959    1.0856 H   0  0  0  0  0  0  0  0  0  0  0  0
   -6.0914   -0.2810   -1.4103 H   0  0  0  0  0  0  0  0  0  0  0  0
  1  2  2  0
  1  8  1  0
  1 23  1  0
  2 12  1  0
  2 24  1  0
  3  9  1  0
  3 18  1  0
  3 25  1  0
  3 26  1  0
  4  8  2  0
  4 19  1  0
  4 27  1  0
  5  9  1  0
  5 20  2  0
  5 28  1  0
  6 10  1  0
  6 21  2  0
  6 29  1  0
  7 11  1  0
  7 18  1  0
  7 30  1  0
  7 31  1  0
  8 10  1  0
  9 11  2  0
 10 13  2  0
 11 22  1  0
 12 14  1  0
 12 19  2  0
 13 20  1  0
 13 22  1  0
 14 15  1  0
 14 16  1  0
 14 17  1  0
 18 32  1  0
 21 22  1  0
M  END
>  <group_name>  (1) 
XTP

>  <molecule_index>  (1) 
00455

>  <conformer_index>  (1) 
00

>  <method>  (1) 
openff-1.3.0

>  <basis>  (1) 
smirnoff

>  <program>  (1) 
openmm

>  <initial_energy>  (1) 
135.74077214744483 kilocalorie / mole

>  <final_energy>  (1) 
125.7339522965758 kilocalorie / mole

$$$$
