XTP-01155-02
     RDKit          3D

 41 45  0  0  0  0  0  0  0  0999 V2000
    4.4565   -1.1111    0.9772 C   0  0  0  0  0  0  0  0  0  0  0  0
    4.4106   -0.0838    1.9398 C   0  0  0  0  0  0  0  0  0  0  0  0
   -4.4094   -1.6458    0.0783 C   0  0  0  0  0  0  0  0  0  0  0  0
    3.4241   -1.2479    0.0346 C   0  0  0  0  0  0  0  0  0  0  0  0
    3.3319    0.8154    1.9665 C   0  0  0  0  0  0  0  0  0  0  0  0
   -4.1574   -2.2967   -1.1240 C   0  0  0  0  0  0  0  0  0  0  0  0
   -3.3234   -1.1389    0.7819 C   0  0  0  0  0  0  0  0  0  0  0  0
    1.2883    0.5672   -2.0238 C   0  0  0  0  0  0  0  0  0  0  0  0
    1.5751    3.7792   -0.2360 C   0  0  0  0  0  0  0  0  0  0  0  0
    2.3721   -0.3298    0.0663 C   0  0  0  0  0  0  0  0  0  0  0  0
    2.3271    0.6695    1.0076 C   0  0  0  0  0  0  0  0  0  0  0  0
    1.3582    2.4384   -0.2722 C   0  0  0  0  0  0  0  0  0  0  0  0
    1.4898    2.0135   -1.6359 C   0  0  0  0  0  0  0  0  0  0  0  0
    1.1198   -0.3086   -0.7650 C   0  0  1  0  0  0  0  0  0  0  0  0
   -2.8408   -2.4334   -1.6031 C   0  0  0  0  0  0  0  0  0  0  0  0
   -2.0147   -1.2875    0.2860 C   0  0  0  0  0  0  0  0  0  0  0  0
    1.0702    1.4607    0.8293 C   0  0  1  0  0  0  0  0  0  0  0  0
   -2.6157   -3.1490   -2.9383 C   0  0  0  0  0  0  0  0  0  0  0  0
   -3.0292   -4.4463   -2.8385 F   0  0  0  0  0  0  0  0  0  0  0  0
   -3.3523   -2.5433   -3.9158 F   0  0  0  0  0  0  0  0  0  0  0  0
   -1.3059   -3.1422   -3.3283 F   0  0  0  0  0  0  0  0  0  0  0  0
    1.8253    4.1195   -1.5630 N   0  0  0  0  0  0  0  0  0  0  0  0
   -1.7913   -1.9326   -0.8983 N   0  0  0  0  0  0  0  0  0  0  0  0
    1.7709    3.0392   -2.3997 N   0  0  0  0  0  0  0  0  0  0  0  0
    0.2433    0.4407    0.1626 N   0  0  0  0  0  0  0  0  0  0  0  0
   -1.1271    0.2880    2.3802 O   0  0  0  0  0  0  0  0  0  0  0  0
    0.2870   -1.6179    1.8207 O   0  0  0  0  0  0  0  0  0  0  0  0
   -0.6038   -0.5671    1.2937 S   0  0  0  0  0  0  0  0  0  0  0  0
    5.2871   -1.8109    0.9721 H   0  0  0  0  0  0  0  0  0  0  0  0
    5.2077    0.0065    2.6720 H   0  0  0  0  0  0  0  0  0  0  0  0
   -5.4231   -1.5344    0.4566 H   0  0  0  0  0  0  0  0  0  0  0  0
    3.4374   -2.0540   -0.6929 H   0  0  0  0  0  0  0  0  0  0  0  0
    3.2790    1.6009    2.7139 H   0  0  0  0  0  0  0  0  0  0  0  0
   -4.9821   -2.7040   -1.7022 H   0  0  0  0  0  0  0  0  0  0  0  0
   -3.4821   -0.6204    1.7249 H   0  0  0  0  0  0  0  0  0  0  0  0
    2.1325    0.2164   -2.6220 H   0  0  0  0  0  0  0  0  0  0  0  0
    0.3857    0.4994   -2.6358 H   0  0  0  0  0  0  0  0  0  0  0  0
    1.5646    4.4328    0.6319 H   0  0  0  0  0  0  0  0  0  0  0  0
    0.7672   -1.3151   -1.0175 H   0  0  0  0  0  0  0  0  0  0  0  0
    0.6551    1.9108    1.7387 H   0  0  0  0  0  0  0  0  0  0  0  0
    2.0289    5.0682   -1.8810 H   0  0  0  0  0  0  0  0  0  0  0  0
  1  2  2  0
  1  4  1  0
  1 29  1  0
  2  5  1  0
  2 30  1  0
  3  6  2  0
  3  7  1  0
  3 31  1  0
  4 10  2  0
  4 32  1  0
  5 11  2  0
  5 33  1  0
  6 15  1  0
  6 34  1  0
  7 16  2  0
  7 35  1  0
  8 13  1  0
  8 14  1  0
  8 36  1  0
  8 37  1  0
  9 12  2  0
  9 22  1  0
  9 38  1  0
 10 11  1  0
 10 14  1  0
 11 17  1  0
 12 13  1  0
 12 17  1  0
 13 24  2  0
 14 25  1  0
 14 39  1  6
 15 18  1  0
 15 23  2  0
 16 23  1  0
 16 28  1  0
 17 25  1  0
 17 40  1  1
 18 19  1  0
 18 20  1  0
 18 21  1  0
 22 24  1  0
 22 41  1  0
 25 28  1  0
 26 28  2  0
 27 28  2  0
M  END
>  <group_name>  (1) 
XTP

>  <molecule_index>  (1) 
01155

>  <conformer_index>  (1) 
02

>  <method>  (1) 
openff-1.3.0

>  <basis>  (1) 
smirnoff

>  <program>  (1) 
openmm

>  <initial_energy>  (1) 
183.72745527111698 kilocalorie / mole

>  <final_energy>  (1) 
163.08365285555365 kilocalorie / mole

$$$$
