XTP-00455-03
     RDKit          3D

 32 35  0  0  0  0  0  0  0  0999 V2000
    1.4399   -0.2756   -0.6387 C   0  0  0  0  0  0  0  0  0  0  0  0
    2.8223   -0.4236   -0.7142 C   0  0  0  0  0  0  0  0  0  0  0  0
   -5.4673   -1.2550   -0.9682 C   0  0  0  0  0  0  0  0  0  0  0  0
    1.8244    1.2856    1.1374 C   0  0  0  0  0  0  0  0  0  0  0  0
   -2.8089   -1.5140   -1.1940 C   0  0  0  0  0  0  0  0  0  0  0  0
   -1.1825    1.8819    1.2240 C   0  0  0  0  0  0  0  0  0  0  0  0
   -5.3298    0.7091    0.4489 C   0  0  0  0  0  0  0  0  0  0  0  0
    0.9116    0.6006    0.3114 C   0  0  0  0  0  0  0  0  0  0  0  0
   -4.0448   -0.8698   -0.7428 C   0  0  0  0  0  0  0  0  0  0  0  0
   -0.5468    0.8150    0.4523 C   0  0  0  0  0  0  0  0  0  0  0  0
   -3.9804    0.2347    0.0398 C   0  0  0  0  0  0  0  0  0  0  0  0
    3.6771    0.2931    0.1443 C   0  0  0  0  0  0  0  0  0  0  0  0
   -1.5948    0.1007   -0.0666 C   0  0  0  0  0  0  0  0  0  0  0  0
    5.1917    0.0871    0.0106 C   0  0  0  0  0  0  0  0  0  0  0  0
    5.4972   -1.2277    0.2186 F   0  0  0  0  0  0  0  0  0  0  0  0
    5.9135    0.8374    0.8954 F   0  0  0  0  0  0  0  0  0  0  0  0
    5.5909    0.4184   -1.2529 F   0  0  0  0  0  0  0  0  0  0  0  0
   -6.0941   -0.5273    0.1550 N   0  0  0  0  0  0  0  0  0  0  0  0
    3.1623    1.1478    1.0673 N   0  0  0  0  0  0  0  0  0  0  0  0
   -1.6186   -1.0501   -0.8742 N   0  0  0  0  0  0  0  0  0  0  0  0
   -2.4900    1.8165    1.1751 N   0  0  0  0  0  0  0  0  0  0  0  0
   -2.7420    0.7397    0.3920 N   0  0  0  0  0  0  0  0  0  0  0  0
    0.8075   -0.8355   -1.3206 H   0  0  0  0  0  0  0  0  0  0  0  0
    3.2498   -1.1013   -1.4477 H   0  0  0  0  0  0  0  0  0  0  0  0
   -5.6339   -2.3365   -0.9113 H   0  0  0  0  0  0  0  0  0  0  0  0
   -5.8164   -0.8724   -1.9341 H   0  0  0  0  0  0  0  0  0  0  0  0
    1.4471    1.9700    1.8899 H   0  0  0  0  0  0  0  0  0  0  0  0
   -2.8749   -2.4034   -1.8137 H   0  0  0  0  0  0  0  0  0  0  0  0
   -0.6453    2.6486    1.7740 H   0  0  0  0  0  0  0  0  0  0  0  0
   -5.3735    1.0021    1.5035 H   0  0  0  0  0  0  0  0  0  0  0  0
   -5.6435    1.5435   -0.1874 H   0  0  0  0  0  0  0  0  0  0  0  0
   -6.0315   -1.1259    0.9786 H   0  0  0  0  0  0  0  0  0  0  0  0
  1  2  2  0
  1  8  1  0
  1 23  1  0
  2 12  1  0
  2 24  1  0
  3  9  1  0
  3 18  1  0
  3 25  1  0
  3 26  1  0
  4  8  2  0
  4 19  1  0
  4 27  1  0
  5  9  1  0
  5 20  2  0
  5 28  1  0
  6 10  1  0
  6 21  2  0
  6 29  1  0
  7 11  1  0
  7 18  1  0
  7 30  1  0
  7 31  1  0
  8 10  1  0
  9 11  2  0
 10 13  2  0
 11 22  1  0
 12 14  1  0
 12 19  2  0
 13 20  1  0
 13 22  1  0
 14 15  1  0
 14 16  1  0
 14 17  1  0
 18 32  1  0
 21 22  1  0
M  END
>  <group_name>  (1) 
XTP

>  <molecule_index>  (1) 
00455

>  <conformer_index>  (1) 
03

>  <method>  (1) 
openff-1.3.0

>  <basis>  (1) 
smirnoff

>  <program>  (1) 
openmm

>  <initial_energy>  (1) 
135.28243360122195 kilocalorie / mole

>  <final_energy>  (1) 
124.43531771253438 kilocalorie / mole

$$$$
