XTP-00455-01
     RDKit          3D

 32 35  0  0  0  0  0  0  0  0999 V2000
    1.4359   -0.5863    0.3147 C   0  0  0  0  0  0  0  0  0  0  0  0
    2.8126   -0.6725    0.5042 C   0  0  0  0  0  0  0  0  0  0  0  0
   -5.4970   -1.1696    0.9243 C   0  0  0  0  0  0  0  0  0  0  0  0
    1.8479    1.4538   -0.8721 C   0  0  0  0  0  0  0  0  0  0  0  0
   -2.8471   -1.4097    1.2487 C   0  0  0  0  0  0  0  0  0  0  0  0
   -1.1343    1.6157   -1.5686 C   0  0  0  0  0  0  0  0  0  0  0  0
   -5.3091    0.5894   -0.7357 C   0  0  0  0  0  0  0  0  0  0  0  0
    0.9246    0.5044   -0.3915 C   0  0  0  0  0  0  0  0  0  0  0  0
   -4.0650   -0.8606    0.6478 C   0  0  0  0  0  0  0  0  0  0  0  0
   -0.5266    0.6662   -0.6373 C   0  0  0  0  0  0  0  0  0  0  0  0
   -3.9720    0.1145   -0.2888 C   0  0  0  0  0  0  0  0  0  0  0  0
    3.6786    0.3141   -0.0039 C   0  0  0  0  0  0  0  0  0  0  0  0
   -1.5919    0.0119   -0.0764 C   0  0  0  0  0  0  0  0  0  0  0  0
    5.1861    0.1615    0.2375 C   0  0  0  0  0  0  0  0  0  0  0  0
    5.4357    0.1249    1.5799 F   0  0  0  0  0  0  0  0  0  0  0  0
    5.9201    1.1783   -0.3047 F   0  0  0  0  0  0  0  0  0  0  0  0
    5.6217   -1.0139   -0.3050 F   0  0  0  0  0  0  0  0  0  0  0  0
   -6.1158    0.0622    0.3916 N   0  0  0  0  0  0  0  0  0  0  0  0
    3.1805    1.3742   -0.6933 N   0  0  0  0  0  0  0  0  0  0  0  0
   -1.6457   -0.9959    0.9027 N   0  0  0  0  0  0  0  0  0  0  0  0
   -2.4422    1.5408   -1.5685 N   0  0  0  0  0  0  0  0  0  0  0  0
   -2.7215    0.5683   -0.6672 N   0  0  0  0  0  0  0  0  0  0  0  0
    0.7949   -1.3677    0.7110 H   0  0  0  0  0  0  0  0  0  0  0  0
    3.2269   -1.5145    1.0515 H   0  0  0  0  0  0  0  0  0  0  0  0
   -5.8125   -2.0513    0.3549 H   0  0  0  0  0  0  0  0  0  0  0  0
   -5.7071   -1.3166    1.9895 H   0  0  0  0  0  0  0  0  0  0  0  0
    1.4836    2.3162   -1.4202 H   0  0  0  0  0  0  0  0  0  0  0  0
   -2.9363   -2.1847    2.0043 H   0  0  0  0  0  0  0  0  0  0  0  0
   -0.5778    2.3047   -2.1968 H   0  0  0  0  0  0  0  0  0  0  0  0
   -5.5777    0.1159   -1.6860 H   0  0  0  0  0  0  0  0  0  0  0  0
   -5.3612    1.6795   -0.8298 H   0  0  0  0  0  0  0  0  0  0  0  0
   -6.0923    0.7608    1.1345 H   0  0  0  0  0  0  0  0  0  0  0  0
  1  2  2  0
  1  8  1  0
  1 23  1  0
  2 12  1  0
  2 24  1  0
  3  9  1  0
  3 18  1  0
  3 25  1  0
  3 26  1  0
  4  8  2  0
  4 19  1  0
  4 27  1  0
  5  9  1  0
  5 20  2  0
  5 28  1  0
  6 10  1  0
  6 21  2  0
  6 29  1  0
  7 11  1  0
  7 18  1  0
  7 30  1  0
  7 31  1  0
  8 10  1  0
  9 11  2  0
 10 13  2  0
 11 22  1  0
 12 14  1  0
 12 19  2  0
 13 20  1  0
 13 22  1  0
 14 15  1  0
 14 16  1  0
 14 17  1  0
 18 32  1  0
 21 22  1  0
M  END
>  <group_name>  (1) 
XTP

>  <molecule_index>  (1) 
00455

>  <conformer_index>  (1) 
01

>  <method>  (1) 
openff-1.3.0

>  <basis>  (1) 
smirnoff

>  <program>  (1) 
openmm

>  <initial_energy>  (1) 
135.27583966714113 kilocalorie / mole

>  <final_energy>  (1) 
124.43532405248123 kilocalorie / mole

$$$$
