XTP-00455-04
     RDKit          3D

 32 35  0  0  0  0  0  0  0  0999 V2000
    1.4344   -0.5568   -0.3241 C   0  0  0  0  0  0  0  0  0  0  0  0
    2.8166   -0.7228   -0.3527 C   0  0  0  0  0  0  0  0  0  0  0  0
   -5.4743   -1.5491   -0.0862 C   0  0  0  0  0  0  0  0  0  0  0  0
    1.8388    1.6720    0.4559 C   0  0  0  0  0  0  0  0  0  0  0  0
   -2.8176   -1.8961   -0.1699 C   0  0  0  0  0  0  0  0  0  0  0  0
   -1.1717    2.2348    0.3318 C   0  0  0  0  0  0  0  0  0  0  0  0
   -5.3256    0.8565    0.1880 C   0  0  0  0  0  0  0  0  0  0  0  0
    0.9161    0.6716    0.0912 C   0  0  0  0  0  0  0  0  0  0  0  0
   -4.0492   -1.1144   -0.0359 C   0  0  0  0  0  0  0  0  0  0  0  0
   -0.5417    0.9282    0.1465 C   0  0  0  0  0  0  0  0  0  0  0  0
   -3.9782    0.2289    0.1285 C   0  0  0  0  0  0  0  0  0  0  0  0
    3.6812    0.3214    0.0257 C   0  0  0  0  0  0  0  0  0  0  0  0
   -1.5939    0.0554    0.0488 C   0  0  0  0  0  0  0  0  0  0  0  0
    5.1949    0.0764   -0.0292 C   0  0  0  0  0  0  0  0  0  0  0  0
    5.5215   -0.9700    0.7856 F   0  0  0  0  0  0  0  0  0  0  0  0
    5.9268    1.1630    0.3586 F   0  0  0  0  0  0  0  0  0  0  0  0
    5.5616   -0.2506   -1.3037 F   0  0  0  0  0  0  0  0  0  0  0  0
   -6.1096   -0.2536   -0.4057 N   0  0  0  0  0  0  0  0  0  0  0  0
    3.1764    1.5174    0.4279 N   0  0  0  0  0  0  0  0  0  0  0  0
   -1.6250   -1.3391   -0.1290 N   0  0  0  0  0  0  0  0  0  0  0  0
   -2.4793    2.1571    0.3431 N   0  0  0  0  0  0  0  0  0  0  0  0
   -2.7372    0.8376    0.1751 N   0  0  0  0  0  0  0  0  0  0  0  0
    0.7950   -1.3788   -0.6300 H   0  0  0  0  0  0  0  0  0  0  0  0
    3.2360   -1.6722   -0.6731 H   0  0  0  0  0  0  0  0  0  0  0  0
   -5.7943   -1.9175    0.8953 H   0  0  0  0  0  0  0  0  0  0  0  0
   -5.6652   -2.3091   -0.8520 H   0  0  0  0  0  0  0  0  0  0  0  0
    1.4705    2.6366    0.7888 H   0  0  0  0  0  0  0  0  0  0  0  0
   -2.8889   -2.9709   -0.3078 H   0  0  0  0  0  0  0  0  0  0  0  0
   -0.6308    3.1701    0.4405 H   0  0  0  0  0  0  0  0  0  0  0  0
   -5.6074    1.0433    1.2298 H   0  0  0  0  0  0  0  0  0  0  0  0
   -5.3862    1.7844   -0.3909 H   0  0  0  0  0  0  0  0  0  0  0  0
   -6.0776   -0.1401   -1.4189 H   0  0  0  0  0  0  0  0  0  0  0  0
  1  2  2  0
  1  8  1  0
  1 23  1  0
  2 12  1  0
  2 24  1  0
  3  9  1  0
  3 18  1  0
  3 25  1  0
  3 26  1  0
  4  8  2  0
  4 19  1  0
  4 27  1  0
  5  9  1  0
  5 20  2  0
  5 28  1  0
  6 10  1  0
  6 21  2  0
  6 29  1  0
  7 11  1  0
  7 18  1  0
  7 30  1  0
  7 31  1  0
  8 10  1  0
  9 11  2  0
 10 13  2  0
 11 22  1  0
 12 14  1  0
 12 19  2  0
 13 20  1  0
 13 22  1  0
 14 15  1  0
 14 16  1  0
 14 17  1  0
 18 32  1  0
 21 22  1  0
M  END
>  <group_name>  (1) 
XTP

>  <molecule_index>  (1) 
00455

>  <conformer_index>  (1) 
04

>  <method>  (1) 
openff-1.3.0

>  <basis>  (1) 
smirnoff

>  <program>  (1) 
openmm

>  <initial_energy>  (1) 
135.2838758244641 kilocalorie / mole

>  <final_energy>  (1) 
124.45618300781963 kilocalorie / mole

$$$$
