XTP-00577-06
     RDKit          3D

 38 41  0  0  0  0  0  0  0  0999 V2000
    2.6842   -2.2709    2.1423 C   0  0  0  0  0  0  0  0  0  0  0  0
    3.3880   -3.3680    2.6278 C   0  0  0  0  0  0  0  0  0  0  0  0
   -2.9701   -1.1323    2.2016 C   0  0  0  0  0  0  0  0  0  0  0  0
   -1.9985   -1.2958    1.2245 C   0  0  0  0  0  0  0  0  0  0  0  0
   -0.0839   -0.7139    4.3507 C   0  0  0  0  0  0  0  0  0  0  0  0
    0.8496   -3.7743    1.7449 C   0  0  0  0  0  0  0  0  0  0  0  0
   -1.2041    1.4171    5.2953 C   0  0  0  0  0  0  0  0  0  0  0  0
   -3.3933    0.7537    4.8094 C   0  0  0  0  0  0  0  0  0  0  0  0
    0.5609   -1.3270    1.1603 C   0  0  0  0  0  0  0  0  0  0  0  0
    1.3860   -2.4786    1.6844 C   0  0  0  0  0  0  0  0  0  0  0  0
   -1.1611   -0.1181    5.3139 C   0  0  1  0  0  0  0  0  0  0  0  0
   -2.2471   -1.0162    3.4449 C   0  0  0  0  0  0  0  0  0  0  0  0
   -2.5830   -0.5359    4.8191 C   0  0  2  0  0  0  0  0  0  0  0  0
   -0.9415   -1.1011    3.1994 C   0  0  0  0  0  0  0  0  0  0  0  0
    2.8028   -4.6499    2.6553 C   0  0  0  0  0  0  0  0  0  0  0  0
    3.6314   -5.8202    3.2004 C   0  0  0  0  0  0  0  0  0  0  0  0
    2.9607   -7.0101    3.1746 F   0  0  0  0  0  0  0  0  0  0  0  0
    3.9952   -5.5632    4.4916 F   0  0  0  0  0  0  0  0  0  0  0  0
    4.7717   -5.9582    2.4611 F   0  0  0  0  0  0  0  0  0  0  0  0
   -2.3653    1.7338    4.4641 N   0  0  0  0  0  0  0  0  0  0  0  0
    1.5327   -4.8384    2.2082 N   0  0  0  0  0  0  0  0  0  0  0  0
   -0.7365   -1.2634    1.8383 N   0  0  0  0  0  0  0  0  0  0  0  0
    3.1404   -1.2837    2.1266 H   0  0  0  0  0  0  0  0  0  0  0  0
    4.4031   -3.2392    2.9923 H   0  0  0  0  0  0  0  0  0  0  0  0
   -4.0466   -1.0871    2.0623 H   0  0  0  0  0  0  0  0  0  0  0  0
   -2.1871   -1.4110    0.1612 H   0  0  0  0  0  0  0  0  0  0  0  0
    0.3851   -1.6008    4.7879 H   0  0  0  0  0  0  0  0  0  0  0  0
    0.6846    0.0107    4.0660 H   0  0  0  0  0  0  0  0  0  0  0  0
   -0.1667   -3.9384    1.3978 H   0  0  0  0  0  0  0  0  0  0  0  0
   -1.3625    1.7918    6.3123 H   0  0  0  0  0  0  0  0  0  0  0  0
   -0.2866    1.8637    4.8989 H   0  0  0  0  0  0  0  0  0  0  0  0
   -3.7977    0.9573    5.8068 H   0  0  0  0  0  0  0  0  0  0  0  0
   -4.2127    0.7272    4.0839 H   0  0  0  0  0  0  0  0  0  0  0  0
    1.0867   -0.3794    1.3103 H   0  0  0  0  0  0  0  0  0  0  0  0
    0.4066   -1.4518    0.0843 H   0  0  0  0  0  0  0  0  0  0  0  0
   -0.9732   -0.4555    6.3376 H   0  0  0  0  0  0  0  0  0  0  0  0
   -3.0437   -1.3261    5.4193 H   0  0  0  0  0  0  0  0  0  0  0  0
   -2.1083    1.5588    3.4906 H   0  0  0  0  0  0  0  0  0  0  0  0
  1  2  2  0
  1 10  1  0
  1 23  1  0
  2 15  1  0
  2 24  1  0
  3  4  2  0
  3 12  1  0
  3 25  1  0
  4 22  1  0
  4 26  1  0
  5 11  1  0
  5 14  1  0
  5 27  1  0
  5 28  1  0
  6 10  2  0
  6 21  1  0
  6 29  1  0
  7 11  1  0
  7 20  1  0
  7 30  1  0
  7 31  1  0
  8 13  1  0
  8 20  1  0
  8 32  1  0
  8 33  1  0
  9 10  1  0
  9 22  1  0
  9 34  1  0
  9 35  1  0
 11 13  1  0
 11 36  1  1
 12 13  1  0
 12 14  2  0
 13 37  1  1
 14 22  1  0
 15 16  1  0
 15 21  2  0
 16 17  1  0
 16 18  1  0
 16 19  1  0
 20 38  1  0
M  END
>  <group_name>  (1) 
XTP

>  <molecule_index>  (1) 
00577

>  <conformer_index>  (1) 
06

>  <method>  (1) 
openff-1.3.0

>  <basis>  (1) 
smirnoff

>  <program>  (1) 
openmm

>  <initial_energy>  (1) 
142.94730269709373 kilocalorie / mole

>  <final_energy>  (1) 
133.20970508270682 kilocalorie / mole

$$$$
