XTP-01155-04
     RDKit          3D

 41 45  0  0  0  0  0  0  0  0999 V2000
    4.2539   -1.5002    0.8345 C   0  0  0  0  0  0  0  0  0  0  0  0
    4.2798   -0.5927    1.9116 C   0  0  0  0  0  0  0  0  0  0  0  0
   -4.2049   -2.0006    0.3862 C   0  0  0  0  0  0  0  0  0  0  0  0
    3.2353   -1.4294   -0.1304 C   0  0  0  0  0  0  0  0  0  0  0  0
    3.2868    0.3934    2.0332 C   0  0  0  0  0  0  0  0  0  0  0  0
   -3.8108   -2.9398   -0.5600 C   0  0  0  0  0  0  0  0  0  0  0  0
   -3.4459   -0.8427    0.5064 C   0  0  0  0  0  0  0  0  0  0  0  0
    1.4177    0.7933   -1.9960 C   0  0  0  0  0  0  0  0  0  0  0  0
    1.7752    3.7594    0.1719 C   0  0  0  0  0  0  0  0  0  0  0  0
    2.2679   -0.4296   -0.0020 C   0  0  0  0  0  0  0  0  0  0  0  0
    2.2925    0.4550    1.0538 C   0  0  0  0  0  0  0  0  0  0  0  0
    1.5033    2.4421   -0.0196 C   0  0  0  0  0  0  0  0  0  0  0  0
    1.6910    2.1614   -1.4169 C   0  0  0  0  0  0  0  0  0  0  0  0
    1.0565   -0.1820   -0.8585 C   0  0  1  0  0  0  0  0  0  0  0  0
   -2.6788   -2.7141   -1.3659 C   0  0  0  0  0  0  0  0  0  0  0  0
   -2.3184   -0.6358   -0.3101 C   0  0  0  0  0  0  0  0  0  0  0  0
    1.1150    1.3738    0.9616 C   0  0  1  0  0  0  0  0  0  0  0  0
   -2.2754   -3.7861   -2.3827 C   0  0  0  0  0  0  0  0  0  0  0  0
   -2.1386   -4.9907   -1.7538 F   0  0  0  0  0  0  0  0  0  0  0  0
   -1.0951   -3.5020   -3.0105 F   0  0  0  0  0  0  0  0  0  0  0  0
   -3.2509   -3.9106   -3.3294 F   0  0  0  0  0  0  0  0  0  0  0  0
    2.1208    4.2252   -1.0939 N   0  0  0  0  0  0  0  0  0  0  0  0
   -1.9508   -1.5731   -1.2347 N   0  0  0  0  0  0  0  0  0  0  0  0
    2.0736    3.2441   -2.0446 N   0  0  0  0  0  0  0  0  0  0  0  0
    0.2714    0.4191    0.2381 N   0  0  0  0  0  0  0  0  0  0  0  0
   -1.8248    1.6919    1.1057 O   0  0  0  0  0  0  0  0  0  0  0  0
   -1.3853    1.8012   -1.2883 O   0  0  0  0  0  0  0  0  0  0  0  0
   -1.3462    0.9538   -0.0825 S   0  0  0  0  0  0  0  0  0  0  0  0
    5.0215   -2.2643    0.7527 H   0  0  0  0  0  0  0  0  0  0  0  0
    5.0684   -0.6595    2.6554 H   0  0  0  0  0  0  0  0  0  0  0  0
   -5.0777   -2.1656    1.0139 H   0  0  0  0  0  0  0  0  0  0  0  0
    3.1982   -2.1357   -0.9546 H   0  0  0  0  0  0  0  0  0  0  0  0
    3.2915    1.0908    2.8652 H   0  0  0  0  0  0  0  0  0  0  0  0
   -4.3791   -3.8578   -0.6803 H   0  0  0  0  0  0  0  0  0  0  0  0
   -3.7224   -0.0862    1.2375 H   0  0  0  0  0  0  0  0  0  0  0  0
    2.2880    0.4341   -2.5502 H   0  0  0  0  0  0  0  0  0  0  0  0
    0.5855    0.8742   -2.6992 H   0  0  0  0  0  0  0  0  0  0  0  0
    1.7369    4.3193    1.1022 H   0  0  0  0  0  0  0  0  0  0  0  0
    0.6323   -1.1153   -1.2441 H   0  0  0  0  0  0  0  0  0  0  0  0
    0.7195    1.7309    1.9195 H   0  0  0  0  0  0  0  0  0  0  0  0
    2.3603    5.1960   -1.2997 H   0  0  0  0  0  0  0  0  0  0  0  0
  1  2  2  0
  1  4  1  0
  1 29  1  0
  2  5  1  0
  2 30  1  0
  3  6  2  0
  3  7  1  0
  3 31  1  0
  4 10  2  0
  4 32  1  0
  5 11  2  0
  5 33  1  0
  6 15  1  0
  6 34  1  0
  7 16  2  0
  7 35  1  0
  8 13  1  0
  8 14  1  0
  8 36  1  0
  8 37  1  0
  9 12  2  0
  9 22  1  0
  9 38  1  0
 10 11  1  0
 10 14  1  0
 11 17  1  0
 12 13  1  0
 12 17  1  0
 13 24  2  0
 14 25  1  0
 14 39  1  6
 15 18  1  0
 15 23  2  0
 16 23  1  0
 16 28  1  0
 17 25  1  0
 17 40  1  1
 18 19  1  0
 18 20  1  0
 18 21  1  0
 22 24  1  0
 22 41  1  0
 25 28  1  0
 26 28  2  0
 27 28  2  0
M  END
>  <group_name>  (1) 
XTP

>  <molecule_index>  (1) 
01155

>  <conformer_index>  (1) 
04

>  <method>  (1) 
openff-1.3.0

>  <basis>  (1) 
smirnoff

>  <program>  (1) 
openmm

>  <initial_energy>  (1) 
185.56306016481668 kilocalorie / mole

>  <final_energy>  (1) 
165.24194435757215 kilocalorie / mole

$$$$
