XTP-01155-00
     RDKit          3D

 41 45  0  0  0  0  0  0  0  0999 V2000
    4.6639   -0.4945    1.6236 C   0  0  0  0  0  0  0  0  0  0  0  0
    3.6805   -0.3680    2.6240 C   0  0  0  0  0  0  0  0  0  0  0  0
   -3.2055   -2.7419   -2.5269 C   0  0  0  0  0  0  0  0  0  0  0  0
    4.3224   -0.3449    0.2693 C   0  0  0  0  0  0  0  0  0  0  0  0
    2.3480   -0.0903    2.2775 C   0  0  0  0  0  0  0  0  0  0  0  0
   -4.0022   -2.0858   -1.5954 C   0  0  0  0  0  0  0  0  0  0  0  0
   -1.8271   -2.6831   -2.3586 C   0  0  0  0  0  0  0  0  0  0  0  0
    2.3624    1.5583   -1.8813 C   0  0  0  0  0  0  0  0  0  0  0  0
   -0.0522    2.7911    0.6177 C   0  0  0  0  0  0  0  0  0  0  0  0
    2.9954   -0.0490   -0.0503 C   0  0  0  0  0  0  0  0  0  0  0  0
    2.0372    0.0727    0.9258 C   0  0  0  0  0  0  0  0  0  0  0  0
    0.6591    1.8016    0.0180 C   0  0  0  0  0  0  0  0  0  0  0  0
    1.4710    2.4020   -0.9991 C   0  0  0  0  0  0  0  0  0  0  0  0
    2.3648    0.0887   -1.4062 C   0  0  1  0  0  0  0  0  0  0  0  0
   -3.4208   -1.3902   -0.5184 C   0  0  0  0  0  0  0  0  0  0  0  0
   -1.2662   -1.9831   -1.2742 C   0  0  0  0  0  0  0  0  0  0  0  0
    0.7071    0.3283    0.2880 C   0  0  1  0  0  0  0  0  0  0  0  0
   -4.3375   -0.6664    0.4724 C   0  0  0  0  0  0  0  0  0  0  0  0
   -5.0938   -1.5796    1.1486 F   0  0  0  0  0  0  0  0  0  0  0  0
   -3.6453    0.0821    1.3834 F   0  0  0  0  0  0  0  0  0  0  0  0
   -5.1822    0.1683   -0.2019 F   0  0  0  0  0  0  0  0  0  0  0  0
    0.3490    3.9473   -0.0466 N   0  0  0  0  0  0  0  0  0  0  0  0
   -2.0702   -1.3495   -0.3681 N   0  0  0  0  0  0  0  0  0  0  0  0
    1.2721    3.6960   -1.0245 N   0  0  0  0  0  0  0  0  0  0  0  0
    0.9704   -0.2440   -1.0454 N   0  0  0  0  0  0  0  0  0  0  0  0
    1.2344   -2.4995   -2.3386 O   0  0  0  0  0  0  0  0  0  0  0  0
    1.0717   -2.6276    0.0938 O   0  0  0  0  0  0  0  0  0  0  0  0
    0.6050   -1.9392   -1.1244 S   0  0  0  0  0  0  0  0  0  0  0  0
    5.6894   -0.7221    1.8997 H   0  0  0  0  0  0  0  0  0  0  0  0
    3.9508   -0.4980    3.6679 H   0  0  0  0  0  0  0  0  0  0  0  0
   -3.6446   -3.2814   -3.3631 H   0  0  0  0  0  0  0  0  0  0  0  0
    5.0698   -0.4645   -0.5093 H   0  0  0  0  0  0  0  0  0  0  0  0
    1.5782   -0.0102    3.0388 H   0  0  0  0  0  0  0  0  0  0  0  0
   -5.0835   -2.1071   -1.6980 H   0  0  0  0  0  0  0  0  0  0  0  0
   -1.1716   -3.1795   -3.0708 H   0  0  0  0  0  0  0  0  0  0  0  0
    1.9748    1.6082   -2.9015 H   0  0  0  0  0  0  0  0  0  0  0  0
    3.3783    1.9600   -1.8832 H   0  0  0  0  0  0  0  0  0  0  0  0
   -0.7659    2.6987    1.4323 H   0  0  0  0  0  0  0  0  0  0  0  0
    2.8158   -0.5748   -2.1532 H   0  0  0  0  0  0  0  0  0  0  0  0
   -0.1599   -0.0636    0.8317 H   0  0  0  0  0  0  0  0  0  0  0  0
   -0.0062    4.8804    0.1673 H   0  0  0  0  0  0  0  0  0  0  0  0
  1  2  2  0
  1  4  1  0
  1 29  1  0
  2  5  1  0
  2 30  1  0
  3  6  2  0
  3  7  1  0
  3 31  1  0
  4 10  2  0
  4 32  1  0
  5 11  2  0
  5 33  1  0
  6 15  1  0
  6 34  1  0
  7 16  2  0
  7 35  1  0
  8 13  1  0
  8 14  1  0
  8 36  1  0
  8 37  1  0
  9 12  2  0
  9 22  1  0
  9 38  1  0
 10 11  1  0
 10 14  1  0
 11 17  1  0
 12 13  1  0
 12 17  1  0
 13 24  2  0
 14 25  1  0
 14 39  1  6
 15 18  1  0
 15 23  2  0
 16 23  1  0
 16 28  1  0
 17 25  1  0
 17 40  1  1
 18 19  1  0
 18 20  1  0
 18 21  1  0
 22 24  1  0
 22 41  1  0
 25 28  1  0
 26 28  2  0
 27 28  2  0
M  END
>  <group_name>  (1) 
XTP

>  <molecule_index>  (1) 
01155

>  <conformer_index>  (1) 
00

>  <method>  (1) 
openff-1.3.0

>  <basis>  (1) 
smirnoff

>  <program>  (1) 
openmm

>  <initial_energy>  (1) 
188.2374113853404 kilocalorie / mole

>  <final_energy>  (1) 
162.7634273354774 kilocalorie / mole

$$$$
